41
Properties=species:S:1:pos:R:3:Z:I:1 energy=-302.99633313338745 field_type=dipole dipole="0.000000 0.000000 0.000000" charge=0
C	-0.641631	-1.673943	-1.034476	6
C	-0.520321	-1.121303	0.376734	6
C	-0.051631	0.288227	0.374974	6
C	-0.731401	1.487377	0.365754	6
N	0.140179	2.545197	0.369214	7
C	1.337479	2.007807	0.381434	6
N	1.274599	0.643747	0.386464	7
H	-0.993001	-2.710303	-1.007046	1
H	0.323669	-1.656213	-1.552256	1
H	-1.352251	-1.089923	-1.629616	1
H	0.170739	-1.745333	0.955374	1
H	-1.494831	-1.182973	0.875034	1
H	-1.802551	1.644537	0.355994	1
H	2.274838	2.547467	0.387284	1
H	2.066119	0.015637	0.395134	1
Es	1.227221	0.905375	0.636902	99
Es	-1.124932	-1.275615	-1.433617	99
Es	0.049660	2.906204	0.368298	99
Es	1.274599	0.643778	0.386374	99
Es	-0.251963	2.081413	0.362733	99
Es	0.021741	-1.660158	-1.381689	99
Es	-0.051405	0.288155	0.374977	99
Es	-0.383089	0.913709	0.693510	99
Es	-0.641619	-1.673936	-1.034439	99
Es	1.739436	0.267802	0.381135	99
Es	-1.460605	1.588110	0.359340	99
Es	-0.383748	0.900132	0.051045	99
Es	-0.880002	-2.381913	-1.010946	99
Es	-0.271740	-0.409278	0.376066	99
Es	1.977844	2.359894	0.385253	99
Es	0.609187	2.285250	0.105906	99
Es	-0.731379	1.487461	0.365746	99
Es	-0.574165	-1.385076	-0.326960	99
Es	0.732459	0.442461	0.346599	99
Es	1.315791	1.114773	0.172127	99
Es	0.140331	2.544642	0.369219	99
Es	0.597490	2.281837	0.646026	99
Es	-0.520288	-1.121246	0.376703	99
Es	-0.039477	-1.539053	0.768366	99
Es	1.337522	2.007631	0.381429	99
Es	-1.179869	-1.155722	0.711202	99
41
Properties=species:S:1:pos:R:3:Z:I:1 energy=-302.99633313338745 field_type=dipole dipole="0.000000 0.000000 0.000000" charge=0
C	-0.641631	-1.673943	-1.034476	6
C	-0.520321	-1.121303	0.376734	6
C	-0.051631	0.288227	0.374974	6
C	-0.731401	1.487377	0.365754	6
N	0.140179	2.545197	0.369214	7
C	1.337479	2.007807	0.381434	6
N	1.274599	0.643747	0.386464	7
H	-0.993001	-2.710303	-1.007046	1
H	0.323669	-1.656213	-1.552256	1
H	-1.352251	-1.089923	-1.629616	1
H	0.170739	-1.745333	0.955374	1
H	-1.494831	-1.182973	0.875034	1
H	-1.802551	1.644537	0.355994	1
H	2.274838	2.547467	0.387284	1
H	2.066119	0.015637	0.395134	1
Es	1.193242	0.777601	0.405443	99
Es	-0.385095	0.910846	0.054758	99
Es	0.023821	-1.659082	-1.380556	99
Es	1.274597	0.643761	0.386281	99
Es	-1.182429	-1.156858	0.709721	99
Es	-0.641619	-1.673936	-1.034439	99
Es	-0.385840	0.921524	0.686449	99
Es	-0.574025	-1.384378	-0.326226	99
Es	0.051606	2.911370	0.368116	99
Es	-0.038259	-1.541442	0.766922	99
Es	-0.250958	2.078652	0.364910	99
Es	1.337523	2.007630	0.381430	99
Es	-0.880518	-2.383124	-1.008982	99
Es	-1.462510	1.587338	0.359625	99
Es	1.979198	2.360102	0.385837	99
Es	-0.051404	0.288157	0.374975	99
Es	1.745992	0.268131	0.390446	99
Es	0.722619	0.446140	0.371428	99
Es	-0.731377	1.487461	0.365716	99
Es	0.605380	2.281366	0.639295	99
Es	0.140329	2.544642	0.369215	99
Es	-0.520288	-1.121247	0.376703	99
Es	1.346682	1.222631	0.373531	99
Es	-0.272137	-0.408459	0.374050	99
Es	0.610435	2.281648	0.109102	99
Es	-1.125963	-1.273845	-1.432447	99
41
Properties=species:S:1:pos:R:3:Z:I:1 energy=-302.99633313338745 field_type=dipole dipole="0.000000 0.000000 0.000000" charge=0
C	-0.641631	-1.673943	-1.034476	6
C	-0.520321	-1.121303	0.376734	6
C	-0.051631	0.288227	0.374974	6
C	-0.731401	1.487377	0.365754	6
N	0.140179	2.545197	0.369214	7
C	1.337479	2.007807	0.381434	6
N	1.274599	0.643747	0.386464	7
H	-0.993001	-2.710303	-1.007046	1
H	0.323669	-1.656213	-1.552256	1
H	-1.352251	-1.089923	-1.629616	1
H	0.170739	-1.745333	0.955374	1
H	-1.494831	-1.182973	0.875034	1
H	-1.802551	1.644537	0.355994	1
H	2.274838	2.547467	0.387284	1
H	2.066119	0.015637	0.395134	1
Es	1.194631	0.776441	0.398295	99
Es	0.025601	-1.658234	-1.379184	99
Es	0.608162	2.279882	0.112849	99
Es	0.722924	0.446975	0.370472	99
Es	-1.126859	-1.271865	-1.430963	99
Es	-0.520288	-1.121248	0.376701	99
Es	-1.184564	-1.158209	0.707895	99
Es	1.274602	0.643746	0.386490	99
Es	1.346400	1.222310	0.381040	99
Es	1.979263	2.360575	0.386110	99
Es	-0.573800	-1.383665	-0.325246	99
Es	-0.386089	0.923182	0.683047	99
Es	-0.731382	1.487468	0.365747	99
Es	0.605167	2.279649	0.634159	99
Es	-0.641618	-1.673937	-1.034437	99
Es	-0.272662	-0.407876	0.372152	99
Es	-0.880979	-2.383710	-1.007471	99
Es	1.337524	2.007630	0.381442	99
Es	-1.463401	1.586801	0.359760	99
Es	-0.384982	0.911825	0.057419	99
Es	-0.250154	2.077217	0.365847	99
Es	-0.037013	-1.543793	0.764938	99
Es	1.746295	0.268064	0.390839	99
Es	-0.051399	0.288147	0.374975	99
Es	0.140331	2.544641	0.369216	99
Es	0.053291	2.914610	0.369211	99
41
Properties=species:S:1:pos:R:3:Z:I:1 energy=-302.99633313338745 field_type=dipole dipole="0.000000 0.000000 0.000000" charge=0
C	-0.641631	-1.673943	-1.034476	6
C	-0.520321	-1.121303	0.376734	6
C	-0.051631	0.288227	0.374974	6
C	-0.731401	1.487377	0.365754	6
N	0.140179	2.545197	0.369214	7
C	1.337479	2.007807	0.381434	6
N	1.274599	0.643747	0.386464	7
H	-0.993001	-2.710303	-1.007046	1
H	0.323669	-1.656213	-1.552256	1
H	-1.352251	-1.089923	-1.629616	1
H	0.170739	-1.745333	0.955374	1
H	-1.494831	-1.182973	0.875034	1
H	-1.802551	1.644537	0.355994	1
H	2.274838	2.547467	0.387284	1
H	2.066119	0.015637	0.395134	1
Es	-0.731382	1.487470	0.365739	99
Es	-0.386180	0.923982	0.680788	99
Es	-0.051399	0.288148	0.374974	99
Es	-0.573843	-1.383138	-0.324161	99
Es	1.979356	2.360819	0.386447	99
Es	-0.035969	-1.546159	0.762480	99
Es	0.723109	0.447476	0.371033	99
Es	1.195967	0.776192	0.385583	99
Es	-0.881080	-2.384034	-1.006430	99
Es	0.054657	2.916764	0.370041	99
Es	0.607789	2.279223	0.115573	99
Es	-0.520289	-1.121248	0.376704	99
Es	-1.463967	1.586376	0.359869	99
Es	1.337524	2.007630	0.381426	99
Es	-0.641618	-1.673936	-1.034438	99
Es	0.603222	2.278077	0.630819	99
Es	-0.272854	-0.407574	0.370660	99
Es	-0.384821	0.912363	0.059191	99
Es	1.274596	0.643765	0.386255	99
Es	-0.249553	2.076288	0.365920	99
Es	-1.186293	-1.159309	0.705966	99
Es	0.140340	2.544647	0.369215	99
Es	1.746618	0.268082	0.390309	99
Es	0.027150	-1.657237	-1.377511	99
Es	-1.127785	-1.269951	-1.429172	99
Es	1.345703	1.221912	0.394023	99
41
Properties=species:S:1:pos:R:3:Z:I:1 energy=-302.99633313338745 field_type=dipole dipole="0.000000 0.000000 0.000000" charge=0
C	-0.641631	-1.673943	-1.034476	6
C	-0.520321	-1.121303	0.376734	6
C	-0.051631	0.288227	0.374974	6
C	-0.731401	1.487377	0.365754	6
N	0.140179	2.545197	0.369214	7
C	1.337479	2.007807	0.381434	6
N	1.274599	0.643747	0.386464	7
H	-0.993001	-2.710303	-1.007046	1
H	0.323669	-1.656213	-1.552256	1
H	-1.352251	-1.089923	-1.629616	1
H	0.170739	-1.745333	0.955374	1
H	-1.494831	-1.182973	0.875034	1
H	-1.802551	1.644537	0.355994	1
H	2.274838	2.547467	0.387284	1
H	2.066119	0.015637	0.395134	1
Es	-1.187701	-1.160422	0.703917	99
Es	-0.035164	-1.548155	0.759882	99
Es	-0.386613	0.909467	0.060933	99
Es	-0.520289	-1.121248	0.376701	99
Es	1.337525	2.007630	0.381440	99
Es	0.608026	2.278681	0.628470	99
Es	-1.464266	1.586212	0.360129	99
Es	0.723238	0.447774	0.370553	99
Es	-0.881239	-2.384269	-1.005590	99
Es	1.274280	0.644305	0.385322	99
Es	-0.384438	0.928144	0.678975	99
Es	-0.248784	2.075357	0.366451	99
Es	-0.273123	-0.407333	0.369222	99
Es	-0.573672	-1.382441	-0.322752	99
Es	0.028247	-1.656438	-1.376021	99
Es	0.601800	2.277627	0.117570	99
Es	1.345506	1.221640	0.396252	99
Es	1.196939	0.775242	0.385349	99
Es	-0.731383	1.487468	0.365750	99
Es	-0.641618	-1.673937	-1.034439	99
Es	0.140337	2.544643	0.369217	99
Es	-0.051398	0.288146	0.374974	99
Es	1.979360	2.360956	0.386559	99
Es	1.746749	0.268029	0.389361	99
Es	0.055029	2.917882	0.370423	99
Es	-1.128346	-1.268332	-1.427346	99
41
Properties=species:S:1:pos:R:3:Z:I:1 energy=-302.99633313338745 field_type=dipole dipole="0.000000 0.000000 0.000000" charge=0
C	-0.641631	-1.673943	-1.034476	6
C	-0.520321	-1.121303	0.376734	6
C	-0.051631	0.288227	0.374974	6
C	-0.731401	1.487377	0.365754	6
N	0.140179	2.545197	0.369214	7
C	1.337479	2.007807	0.381434	6
N	1.274599	0.643747	0.386464	7
H	-0.993001	-2.710303	-1.007046	1
H	0.323669	-1.656213	-1.552256	1
H	-1.352251	-1.089923	-1.629616	1
H	0.170739	-1.745333	0.955374	1
H	-1.494831	-1.182973	0.875034	1
H	-1.802551	1.644537	0.355994	1
H	2.274838	2.547467	0.387284	1
H	2.066119	0.015637	0.395134	1
Es	-0.248429	2.074895	0.367101	99
Es	-0.731383	1.487470	0.365752	99
Es	1.274600	0.643754	0.386337	99
Es	-0.573624	-1.382065	-0.321717	99
Es	0.055512	2.918682	0.371090	99
Es	1.197086	0.775679	0.382480	99
Es	-0.520289	-1.121248	0.376701	99
Es	0.599503	2.276903	0.118754	99
Es	-0.383819	0.930187	0.677500	99
Es	1.746808	0.267929	0.388855	99
Es	-1.464448	1.586069	0.360368	99
Es	-0.387325	0.908242	0.062037	99
Es	1.979353	2.361056	0.386703	99
Es	-0.034699	-1.549873	0.757418	99
Es	1.337525	2.007629	0.381428	99
Es	-0.273189	-0.407285	0.368402	99
Es	0.029198	-1.655783	-1.374663	99
Es	-1.188701	-1.161180	0.702128	99
Es	1.345235	1.221310	0.400541	99
Es	-1.128825	-1.266948	-1.425465	99
Es	-0.641619	-1.673936	-1.034438	99
Es	-0.051400	0.288146	0.374971	99
Es	-0.881329	-2.384267	-1.005111	99
Es	0.609500	2.278509	0.626506	99
Es	0.723424	0.448119	0.368408	99
Es	0.140336	2.544635	0.369216	99
41
Properties=species:S:1:pos:R:3:Z:I:1 energy=-302.99633313338745 field_type=dipole dipole="0.000000 0.000000 0.000000" charge=0
C	-0.641631	-1.673943	-1.034476	6
C	-0.520321	-1.121303	0.376734	6
C	-0.051631	0.288227	0.374974	6
C	-0.731401	1.487377	0.365754	6
N	0.140179	2.545197	0.369214	7
C	1.337479	2.007807	0.381434	6
N	1.274599	0.643747	0.386464	7
H	-0.993001	-2.710303	-1.007046	1
H	0.323669	-1.656213	-1.552256	1
H	-1.352251	-1.089923	-1.629616	1
H	0.170739	-1.745333	0.955374	1
H	-1.494831	-1.182973	0.875034	1
H	-1.802551	1.644537	0.355994	1
H	2.274838	2.547467	0.387284	1
H	2.066119	0.015637	0.395134	1
Es	-0.573561	-1.381877	-0.321153	99
Es	-0.641619	-1.673937	-1.034438	99
Es	0.029593	-1.655649	-1.374427	99
Es	0.575320	2.271799	0.131845	99
Es	-1.129061	-1.266254	-1.424179	99
Es	0.055025	2.918735	0.371966	99
Es	-0.388668	0.905137	0.063299	99
Es	0.140328	2.544636	0.369209	99
Es	-0.247868	2.074356	0.369011	99
Es	1.746962	0.268049	0.387181	99
Es	1.337525	2.007629	0.381438	99
Es	1.197954	0.775743	0.381730	99
Es	-1.189115	-1.161446	0.701652	99
Es	1.979370	2.361107	0.386229	99
Es	-0.381974	0.933179	0.675691	99
Es	-0.273054	-0.407292	0.368205	99
Es	-0.034506	-1.550712	0.755792	99
Es	1.345171	1.221324	0.397749	99
Es	0.632361	2.283933	0.611391	99
Es	0.723311	0.448044	0.372795	99
Es	1.274569	0.643793	0.386794	99
Es	-0.520289	-1.121249	0.376702	99
Es	-0.731382	1.487470	0.365750	99
Es	-1.464520	1.586076	0.361060	99
Es	-0.881472	-2.384113	-1.004961	99
Es	-0.051399	0.288146	0.374972	99
41
Properties=species:S:1:pos:R:3:Z:I:1 energy=-302.99633313338745 field_type=dipole dipole="0.000000 0.000000 0.000000" charge=0
C	-0.641631	-1.673943	-1.034476	6
C	-0.520321	-1.121303	0.376734	6
C	-0.051631	0.288227	0.374974	6
C	-0.731401	1.487377	0.365754	6
N	0.140179	2.545197	0.369214	7
C	1.337479	2.007807	0.381434	6
N	1.274599	0.643747	0.386464	7
H	-0.993001	-2.710303	-1.007046	1
H	0.323669	-1.656213	-1.552256	1
H	-1.352251	-1.089923	-1.629616	1
H	0.170739	-1.745333	0.955374	1
H	-1.494831	-1.182973	0.875034	1
H	-1.802551	1.644537	0.355994	1
H	2.274838	2.547467	0.387284	1
H	2.066119	0.015637	0.395134	1
Es	-0.034273	-1.551769	0.753972	99
Es	-0.881520	-2.384102	-1.004696	99
Es	-1.464598	1.586033	0.361253	99
Es	0.633299	2.283844	0.609522	99
Es	1.337526	2.007629	0.381426	99
Es	0.055243	2.919052	0.372457	99
Es	0.723388	0.448158	0.371734	99
Es	1.345014	1.221152	0.399910	99
Es	-1.189573	-1.161876	0.700607	99
Es	0.030042	-1.655318	-1.373630	99
Es	-0.731382	1.487468	0.365768	99
Es	-0.051398	0.288146	0.374969	99
Es	-0.389787	0.903538	0.064680	99
Es	-0.520289	-1.121247	0.376701	99
Es	0.573937	2.271411	0.133502	99
Es	-0.273129	-0.407229	0.367715	99
Es	-0.573512	-1.381711	-0.320501	99
Es	1.979373	2.361140	0.386300	99
Es	1.747034	0.268037	0.386794	99
Es	-0.380938	0.935427	0.674192	99
Es	1.274601	0.643747	0.386527	99
Es	-0.247737	2.074090	0.368936	99
Es	-0.641616	-1.673928	-1.034419	99
Es	1.198224	0.775621	0.381111	99
Es	-1.129288	-1.265320	-1.422744	99
Es	0.140362	2.544633	0.369218	99
41
Properties=species:S:1:pos:R:3:Z:I:1 energy=-302.99633313338745 field_type=dipole dipole="0.000000 0.000000 0.000000" charge=0
C	-0.641631	-1.673943	-1.034476	6
C	-0.520321	-1.121303	0.376734	6
C	-0.051631	0.288227	0.374974	6
C	-0.731401	1.487377	0.365754	6
N	0.140179	2.545197	0.369214	7
C	1.337479	2.007807	0.381434	6
N	1.274599	0.643747	0.386464	7
H	-0.993001	-2.710303	-1.007046	1
H	0.323669	-1.656213	-1.552256	1
H	-1.352251	-1.089923	-1.629616	1
H	0.170739	-1.745333	0.955374	1
H	-1.494831	-1.182973	0.875034	1
H	-1.802551	1.644537	0.355994	1
H	2.274838	2.547467	0.387284	1
H	2.066119	0.015637	0.395134	1
Es	-0.273123	-0.407309	0.367441	99
Es	-0.881546	-2.384013	-1.004601	99
Es	-1.129413	-1.264975	-1.422053	99
Es	0.030235	-1.655246	-1.373456	99
Es	-0.641618	-1.673936	-1.034437	99
Es	-0.731382	1.487469	0.365752	99
Es	-0.573577	-1.381681	-0.320357	99
Es	0.140345	2.544638	0.369223	99
Es	-1.464619	1.586026	0.361512	99
Es	-0.389287	0.903515	0.064409	99
Es	0.054873	2.918956	0.372853	99
Es	1.198877	0.776073	0.380429	99
Es	-0.051398	0.288146	0.374968	99
Es	-0.520289	-1.121248	0.376700	99
Es	-0.380932	0.934940	0.674031	99
Es	0.563097	2.269276	0.144985	99
Es	0.723382	0.448214	0.372690	99
Es	-0.247439	2.073967	0.370236	99
Es	1.979349	2.361133	0.386236	99
Es	1.747048	0.268015	0.386119	99
Es	1.344965	1.221042	0.400308	99
Es	-0.034095	-1.552157	0.753031	99
Es	0.643137	2.286304	0.596826	99
Es	1.274604	0.643747	0.386435	99
Es	-1.189717	-1.161898	0.700588	99
Es	1.337525	2.007629	0.381434	99
41
Properties=species:S:1:pos:R:3:Z:I:1 energy=-302.99633313338745 field_type=dipole dipole="0.000000 0.000000 0.000000" charge=0
C	-0.641631	-1.673943	-1.034476	6
C	-0.520321	-1.121303	0.376734	6
C	-0.051631	0.288227	0.374974	6
C	-0.731401	1.487377	0.365754	6
N	0.140179	2.545197	0.369214	7
C	1.337479	2.007807	0.381434	6
N	1.274599	0.643747	0.386464	7
H	-0.993001	-2.710303	-1.007046	1
H	0.323669	-1.656213	-1.552256	1
H	-1.352251	-1.089923	-1.629616	1
H	0.170739	-1.745333	0.955374	1
H	-1.494831	-1.182973	0.875034	1
H	-1.802551	1.644537	0.355994	1
H	2.274838	2.547467	0.387284	1
H	2.066119	0.015637	0.395134	1
Es	0.723406	0.448278	0.373094	99
Es	1.337525	2.007629	0.381439	99
Es	-0.273093	-0.407412	0.367509	99
Es	-0.247306	2.073929	0.369933	99
Es	-0.392533	0.898611	0.068660	99
Es	0.030374	-1.655260	-1.373476	99
Es	0.647540	2.287255	0.589932	99
Es	-0.034019	-1.552280	0.752666	99
Es	-1.129459	-1.264872	-1.421712	99
Es	0.140338	2.544639	0.369217	99
Es	-1.464633	1.586075	0.361737	99
Es	0.558588	2.268185	0.151792	99
Es	-0.377646	0.940331	0.670065	99
Es	-0.641619	-1.673936	-1.034438	99
Es	-0.731382	1.487470	0.365750	99
Es	-1.189845	-1.161888	0.700563	99
Es	1.199025	0.775483	0.382915	99
Es	1.274532	0.643884	0.385901	99
Es	-0.520289	-1.121247	0.376702	99
Es	0.054669	2.918952	0.373089	99
Es	1.979367	2.361085	0.385921	99
Es	1.344970	1.221138	0.397939	99
Es	-0.051398	0.288146	0.374968	99
Es	-0.881628	-2.383909	-1.004473	99
Es	1.747079	0.267996	0.385941	99
Es	-0.573561	-1.381652	-0.320333	99
41
Properties=species:S:1:pos:R:3:Z:I:1 energy=-302.99633313338745 field_type=dipole dipole="0.000000 0.000000 0.000000" charge=0
C	-0.641631	-1.673943	-1.034476	6
C	-0.520321	-1.121303	0.376734	6
C	-0.051631	0.288227	0.374974	6
C	-0.731401	1.487377	0.365754	6
N	0.140179	2.545197	0.369214	7
C	1.337479	2.007807	0.381434	6
N	1.274599	0.643747	0.386464	7
H	-0.993001	-2.710303	-1.007046	1
H	0.323669	-1.656213	-1.552256	1
H	-1.352251	-1.089923	-1.629616	1
H	0.170739	-1.745333	0.955374	1
H	-1.494831	-1.182973	0.875034	1
H	-1.802551	1.644537	0.355994	1
H	2.274838	2.547467	0.387284	1
H	2.066119	0.015637	0.395134	1
Es	0.140339	2.544632	0.369218	99
Es	-0.247516	2.074256	0.361712	99
Es	1.747176	0.267976	0.391072	99
Es	-0.573258	-1.381628	-0.320198	99
Es	-0.273784	-0.407198	0.367591	99
Es	-1.189912	-1.162260	0.698369	99
Es	1.199180	0.775983	0.379521	99
Es	-1.464679	1.586131	0.359031	99
Es	0.030090	-1.655066	-1.372050	99
Es	0.724033	0.448787	0.359561	99
Es	1.337525	2.007629	0.381442	99
Es	-0.520288	-1.121248	0.376699	99
Es	-0.374059	0.943721	0.666355	99
Es	1.344284	1.220246	0.409838	99
Es	-0.395970	0.895142	0.074788	99
Es	-0.880654	-2.384097	-1.004991	99
Es	0.055682	2.919308	0.371479	99
Es	-0.033968	-1.551528	0.755610	99
Es	-0.731382	1.487470	0.365740	99
Es	-0.641619	-1.673936	-1.034438	99
Es	0.657192	2.290352	0.167676	99
Es	1.979337	2.361155	0.388533	99
Es	-0.051398	0.288146	0.374967	99
Es	1.274591	0.643761	0.386643	99
Es	0.547750	2.264301	0.581158	99
Es	-1.129692	-1.265406	-1.424023	99
41
Properties=species:S:1:pos:R:3:Z:I:1 energy=-302.99633313338745 field_type=dipole dipole="0.000000 0.000000 0.000000" charge=0
C	-0.641631	-1.673943	-1.034476	6
C	-0.520321	-1.121303	0.376734	6
C	-0.051631	0.288227	0.374974	6
C	-0.731401	1.487377	0.365754	6
N	0.140179	2.545197	0.369214	7
C	1.337479	2.007807	0.381434	6
N	1.274599	0.643747	0.386464	7
H	-0.993001	-2.710303	-1.007046	1
H	0.323669	-1.656213	-1.552256	1
H	-1.352251	-1.089923	-1.629616	1
H	0.170739	-1.745333	0.955374	1
H	-1.494831	-1.182973	0.875034	1
H	-1.802551	1.644537	0.355994	1
H	2.274838	2.547467	0.387284	1
H	2.066119	0.015637	0.395134	1
Es	-0.641618	-1.673934	-1.034434	99
Es	-0.247421	2.074350	0.361617	99
Es	-0.880625	-2.383954	-1.004805	99
Es	-0.520289	-1.121248	0.376701	99
Es	-0.573299	-1.381400	-0.319813	99
Es	0.723966	0.448779	0.360755	99
Es	-1.190009	-1.162311	0.698239	99
Es	0.654113	2.289354	0.161072	99
Es	1.979345	2.361120	0.388351	99
Es	0.140344	2.544640	0.369217	99
Es	-0.731382	1.487469	0.365750	99
Es	1.274505	0.643925	0.385810	99
Es	-1.129833	-1.265343	-1.423865	99
Es	0.055566	2.919410	0.371493	99
Es	-0.370260	0.950558	0.656796	99
Es	-0.033889	-1.551850	0.754975	99
Es	-1.464678	1.586155	0.359056	99
Es	0.030239	-1.655101	-1.371948	99
Es	1.337525	2.007630	0.381438	99
Es	0.551544	2.264732	0.587683	99
Es	1.344355	1.220334	0.407817	99
Es	1.747263	0.268018	0.390964	99
Es	1.198974	0.775026	0.381353	99
Es	-0.400314	0.889301	0.084578	99
Es	-0.273723	-0.407177	0.367530	99
Es	-0.051399	0.288146	0.374973	99
41
Properties=species:S:1:pos:R:3:Z:I:1 energy=-302.99633313338745 field_type=dipole dipole="0.000000 0.000000 0.000000" charge=0
C	-0.641631	-1.673943	-1.034476	6
C	-0.520321	-1.121303	0.376734	6
C	-0.051631	0.288227	0.374974	6
C	-0.731401	1.487377	0.365754	6
N	0.140179	2.545197	0.369214	7
C	1.337479	2.007807	0.381434	6
N	1.274599	0.643747	0.386464	7
H	-0.993001	-2.710303	-1.007046	1
H	0.323669	-1.656213	-1.552256	1
H	-1.352251	-1.089923	-1.629616	1
H	0.170739	-1.745333	0.955374	1
H	-1.494831	-1.182973	0.875034	1
H	-1.802551	1.644537	0.355994	1
H	2.274838	2.547467	0.387284	1
H	2.066119	0.015637	0.395134	1
Es	0.667888	2.292361	0.542774	99
Es	0.140336	2.544642	0.369217	99
Es	-1.129648	-1.265116	-1.422043	99
Es	1.274603	0.643747	0.386411	99
Es	-0.388575	0.902635	0.064161	99
Es	1.344749	1.220843	0.399353	99
Es	-0.246871	2.073305	0.370593	99
Es	1.337525	2.007629	0.381429	99
Es	1.200650	0.776926	0.380771	99
Es	-0.273012	-0.407532	0.367378	99
Es	0.535314	2.264298	0.198161	99
Es	-0.641618	-1.673936	-1.034437	99
Es	-0.033904	-1.552049	0.752989	99
Es	-1.464642	1.586170	0.361990	99
Es	-0.573571	-1.381675	-0.320373	99
Es	-1.189712	-1.161516	0.701204	99
Es	1.747193	0.267958	0.385150	99
Es	-0.051398	0.288147	0.374961	99
Es	0.030258	-1.655667	-1.374035	99
Es	-0.520290	-1.121250	0.376699	99
Es	-0.881508	-2.383601	-1.004576	99
Es	-0.380003	0.934692	0.674118	99
Es	0.053873	2.918672	0.373754	99
Es	0.723391	0.448365	0.374014	99
Es	1.979354	2.361110	0.385887	99
Es	-0.731383	1.487469	0.365753	99
41
Properties=species:S:1:pos:R:3:Z:I:1 energy=-302.99633313338745 field_type=dipole dipole="0.000000 0.000000 0.000000" charge=0
C	-0.641631	-1.673943	-1.034476	6
C	-0.520321	-1.121303	0.376734	6
C	-0.051631	0.288227	0.374974	6
C	-0.731401	1.487377	0.365754	6
N	0.140179	2.545197	0.369214	7
C	1.337479	2.007807	0.381434	6
N	1.274599	0.643747	0.386464	7
H	-0.993001	-2.710303	-1.007046	1
H	0.323669	-1.656213	-1.552256	1
H	-1.352251	-1.089923	-1.629616	1
H	0.170739	-1.745333	0.955374	1
H	-1.494831	-1.182973	0.875034	1
H	-1.802551	1.644537	0.355994	1
H	2.274838	2.547467	0.387284	1
H	2.066119	0.015637	0.395134	1
Es	0.724093	0.448638	0.359546	99
Es	-0.641619	-1.673936	-1.034437	99
Es	-1.464633	1.586319	0.358938	99
Es	-0.273674	-0.407345	0.367958	99
Es	0.029488	-1.656024	-1.373648	99
Es	1.201335	0.777642	0.382122	99
Es	0.054694	2.918771	0.371321	99
Es	1.979354	2.361131	0.388390	99
Es	-1.129681	-1.266656	-1.425885	99
Es	0.140345	2.544641	0.369216	99
Es	-0.393139	0.897496	0.070308	99
Es	1.747416	0.268109	0.390964	99
Es	1.344049	1.220172	0.408276	99
Es	-0.034073	-1.550157	0.757869	99
Es	-0.573436	-1.382022	-0.321495	99
Es	0.520190	2.260447	0.506324	99
Es	-0.247331	2.073689	0.360433	99
Es	-0.880487	-2.383670	-1.005121	99
Es	1.274525	0.643906	0.385863	99
Es	0.680699	2.296022	0.243368	99
Es	-0.051398	0.288146	0.374961	99
Es	-1.189091	-1.161123	0.700734	99
Es	-0.374480	0.938582	0.671413	99
Es	-0.731383	1.487469	0.365744	99
Es	-0.520288	-1.121248	0.376701	99
Es	1.337525	2.007629	0.381441	99
41
Properties=species:S:1:pos:R:3:Z:I:1 energy=-302.99633313338745 field_type=dipole dipole="0.000000 0.000000 0.000000" charge=0
C	-0.641631	-1.673943	-1.034476	6
C	-0.520321	-1.121303	0.376734	6
C	-0.051631	0.288227	0.374974	6
C	-0.731401	1.487377	0.365754	6
N	0.140179	2.545197	0.369214	7
C	1.337479	2.007807	0.381434	6
N	1.274599	0.643747	0.386464	7
H	-0.993001	-2.710303	-1.007046	1
H	0.323669	-1.656213	-1.552256	1
H	-1.352251	-1.089923	-1.629616	1
H	0.170739	-1.745333	0.955374	1
H	-1.494831	-1.182973	0.875034	1
H	-1.802551	1.644537	0.355994	1
H	2.274838	2.547467	0.387284	1
H	2.066119	0.015637	0.395134	1
Es	-0.387702	0.903375	0.063672	99
Es	1.337525	2.007629	0.381437	99
Es	-1.189828	-1.161488	0.700998	99
Es	-0.246731	2.073249	0.370515	99
Es	0.723389	0.448336	0.373049	99
Es	0.053564	2.918519	0.374137	99
Es	-1.129747	-1.264841	-1.421663	99
Es	1.979361	2.361064	0.385946	99
Es	0.140336	2.544644	0.369213	99
Es	-0.731382	1.487469	0.365763	99
Es	0.530812	2.263739	0.210078	99
Es	1.344646	1.220680	0.401497	99
Es	-0.033827	-1.552338	0.752536	99
Es	1.747223	0.268028	0.385104	99
Es	0.030416	-1.655689	-1.373796	99
Es	-0.881510	-2.383495	-1.004432	99
Es	-1.464664	1.586151	0.362023	99
Es	-0.573596	-1.381704	-0.320285	99
Es	-0.520288	-1.121248	0.376698	99
Es	1.274586	0.643769	0.386688	99
Es	-0.380323	0.933683	0.674605	99
Es	0.671687	2.293305	0.530692	99
Es	-0.641618	-1.673937	-1.034437	99
Es	1.201092	0.777161	0.379277	99
Es	-0.273021	-0.407578	0.367021	99
Es	-0.051398	0.288146	0.374967	99
41
Properties=species:S:1:pos:R:3:Z:I:1 energy=-302.99633313338745 field_type=dipole dipole="0.000000 0.000000 0.000000" charge=0
C	-0.641631	-1.673943	-1.034476	6
C	-0.520321	-1.121303	0.376734	6
C	-0.051631	0.288227	0.374974	6
C	-0.731401	1.487377	0.365754	6
N	0.140179	2.545197	0.369214	7
C	1.337479	2.007807	0.381434	6
N	1.274599	0.643747	0.386464	7
H	-0.993001	-2.710303	-1.007046	1
H	0.323669	-1.656213	-1.552256	1
H	-1.352251	-1.089923	-1.629616	1
H	0.170739	-1.745333	0.955374	1
H	-1.494831	-1.182973	0.875034	1
H	-1.802551	1.644537	0.355994	1
H	2.274838	2.547467	0.387284	1
H	2.066119	0.015637	0.395134	1
Es	-1.189097	-1.161129	0.700758	99
Es	-0.573506	-1.382097	-0.321657	99
Es	-0.880496	-2.383542	-1.005163	99
Es	-0.273657	-0.407359	0.367917	99
Es	-0.391880	0.898723	0.068744	99
Es	0.029615	-1.656059	-1.373541	99
Es	-0.051398	0.288146	0.374967	99
Es	-0.520287	-1.121248	0.376702	99
Es	1.344187	1.220111	0.407781	99
Es	1.337525	2.007629	0.381434	99
Es	-1.129749	-1.266562	-1.425747	99
Es	-0.034031	-1.550232	0.757706	99
Es	-0.375235	0.937017	0.672840	99
Es	-1.464649	1.586288	0.359029	99
Es	-0.731382	1.487469	0.365745	99
Es	0.515684	2.259790	0.485071	99
Es	-0.641618	-1.673936	-1.034437	99
Es	1.201748	0.778131	0.381678	99
Es	1.979362	2.361106	0.388409	99
Es	-0.247124	2.073610	0.360801	99
Es	1.274602	0.643747	0.386512	99
Es	0.054307	2.918702	0.372237	99
Es	0.723965	0.448755	0.359667	99
Es	0.684423	2.296914	0.263627	99
Es	1.747355	0.268015	0.391006	99
Es	0.140339	2.544639	0.369216	99
41
Properties=species:S:1:pos:R:3:Z:I:1 energy=-302.99633313338745 field_type=dipole dipole="0.000000 0.000000 0.000000" charge=0
C	-0.641631	-1.673943	-1.034476	6
C	-0.520321	-1.121303	0.376734	6
C	-0.051631	0.288227	0.374974	6
C	-0.731401	1.487377	0.365754	6
N	0.140179	2.545197	0.369214	7
C	1.337479	2.007807	0.381434	6
N	1.274599	0.643747	0.386464	7
H	-0.993001	-2.710303	-1.007046	1
H	0.323669	-1.656213	-1.552256	1
H	-1.352251	-1.089923	-1.629616	1
H	0.170739	-1.745333	0.955374	1
H	-1.494831	-1.182973	0.875034	1
H	-1.802551	1.644537	0.355994	1
H	2.274838	2.547467	0.387284	1
H	2.066119	0.015637	0.395134	1
Es	0.140349	2.544614	0.369217	99
Es	0.053312	2.918272	0.374683	99
Es	0.517468	2.261942	0.257964	99
Es	-0.272948	-0.407639	0.367568	99
Es	1.274580	0.643817	0.386082	99
Es	-0.641618	-1.673936	-1.034437	99
Es	1.747329	0.268029	0.385898	99
Es	-0.573659	-1.381813	-0.320970	99
Es	1.979369	2.361100	0.386120	99
Es	1.202271	0.778214	0.381356	99
Es	-0.051398	0.288148	0.374982	99
Es	-0.881310	-2.383322	-1.004656	99
Es	1.337525	2.007629	0.381425	99
Es	-0.520289	-1.121247	0.376701	99
Es	-0.731383	1.487470	0.365755	99
Es	-1.464627	1.586313	0.361661	99
Es	-0.380050	0.931453	0.676182	99
Es	-0.246893	2.073025	0.369390	99
Es	0.723288	0.448392	0.371905	99
Es	0.682507	2.296012	0.482717	99
Es	-0.033937	-1.551174	0.754791	99
Es	-0.386478	0.903897	0.062580	99
Es	-1.189413	-1.160984	0.701920	99
Es	-1.129697	-1.265964	-1.423587	99
Es	0.030035	-1.656145	-1.374510	99
Es	1.344668	1.220527	0.400566	99
41
Properties=species:S:1:pos:R:3:Z:I:1 energy=-302.99633313338745 field_type=dipole dipole="0.000000 0.000000 0.000000" charge=0
C	-0.641631	-1.673943	-1.034476	6
C	-0.520321	-1.121303	0.376734	6
C	-0.051631	0.288227	0.374974	6
C	-0.731401	1.487377	0.365754	6
N	0.140179	2.545197	0.369214	7
C	1.337479	2.007807	0.381434	6
N	1.274599	0.643747	0.386464	7
H	-0.993001	-2.710303	-1.007046	1
H	0.323669	-1.656213	-1.552256	1
H	-1.352251	-1.089923	-1.629616	1
H	0.170739	-1.745333	0.955374	1
H	-1.494831	-1.182973	0.875034	1
H	-1.802551	1.644537	0.355994	1
H	2.274838	2.547467	0.387284	1
H	2.066119	0.015637	0.395134	1
Es	-1.129877	-1.266440	-1.425442	99
Es	-1.464660	1.586331	0.359139	99
Es	0.029722	-1.656001	-1.373487	99
Es	-0.247181	2.073555	0.360893	99
Es	-0.033912	-1.550542	0.757180	99
Es	-0.641618	-1.673936	-1.034437	99
Es	-0.273650	-0.407384	0.367774	99
Es	-0.374480	0.937966	0.671700	99
Es	0.724061	0.448563	0.360277	99
Es	-0.731383	1.487470	0.365747	99
Es	-1.189298	-1.161184	0.700474	99
Es	1.337525	2.007629	0.381440	99
Es	-0.392448	0.897834	0.069540	99
Es	-0.573454	-1.381881	-0.321180	99
Es	0.685236	2.297097	0.268835	99
Es	1.274587	0.643768	0.386689	99
Es	1.202047	0.778247	0.378838	99
Es	0.054273	2.918619	0.372322	99
Es	1.747495	0.268138	0.390917	99
Es	0.514635	2.259676	0.479758	99
Es	-0.051398	0.288146	0.374968	99
Es	0.140340	2.544625	0.369219	99
Es	1.979324	2.361165	0.388374	99
Es	-0.880475	-2.383506	-1.004981	99
Es	-0.520288	-1.121248	0.376701	99
Es	1.343879	1.219920	0.410048	99
41
Properties=species:S:1:pos:R:3:Z:I:1 energy=-302.99633313338745 field_type=dipole dipole="0.000000 0.000000 0.000000" charge=0
C	-0.641631	-1.673943	-1.034476	6
C	-0.520321	-1.121303	0.376734	6
C	-0.051631	0.288227	0.374974	6
C	-0.731401	1.487377	0.365754	6
N	0.140179	2.545197	0.369214	7
C	1.337479	2.007807	0.381434	6
N	1.274599	0.643747	0.386464	7
H	-0.993001	-2.710303	-1.007046	1
H	0.323669	-1.656213	-1.552256	1
H	-1.352251	-1.089923	-1.629616	1
H	0.170739	-1.745333	0.955374	1
H	-1.494831	-1.182973	0.875034	1
H	-1.802551	1.644537	0.355994	1
H	2.274838	2.547467	0.387284	1
H	2.066119	0.015637	0.395134	1
Es	-0.731383	1.487469	0.365753	99
Es	-1.129812	-1.265161	-1.422245	99
Es	1.337525	2.007629	0.381432	99
Es	0.679533	2.295252	0.498678	99
Es	0.053186	2.918281	0.374652	99
Es	0.723455	0.448332	0.372718	99
Es	0.521293	2.262314	0.241895	99
Es	-1.464666	1.586240	0.361837	99
Es	-0.520289	-1.121248	0.376701	99
Es	0.140340	2.544636	0.369215	99
Es	1.274577	0.643803	0.386108	99
Es	-0.379381	0.933741	0.674548	99
Es	1.747376	0.268040	0.385397	99
Es	-0.573719	-1.381633	-0.320250	99
Es	-0.051398	0.288144	0.374962	99
Es	-0.273006	-0.407591	0.367096	99
Es	-0.246625	2.073063	0.370059	99
Es	-0.881381	-2.383376	-1.004582	99
Es	-0.387766	0.902479	0.063871	99
Es	0.030388	-1.655794	-1.373848	99
Es	-1.189723	-1.161282	0.701279	99
Es	1.344447	1.220591	0.401181	99
Es	1.202028	0.777749	0.380274	99
Es	-0.641618	-1.673937	-1.034436	99
Es	-0.033750	-1.552189	0.752870	99
Es	1.979372	2.361076	0.386141	99
