41
Properties=species:S:1:pos:R:3:Z:I:1 energy=-302.92830277668105 field_type=dipole dipole="0.000000 0.000000 0.000000" charge=0
C	-1.972445	-1.229719	-0.327089	6
C	-0.514275	-1.154809	-0.010179	6
C	0.224295	-0.039909	0.003961	6
C	1.672975	0.138611	0.307831	6
N	1.867105	1.576801	0.068171	7
N	0.693195	2.243841	-0.145779	7
C	-0.231675	1.339361	-0.239809	6
H	-2.219075	-2.230618	-0.694509	1
H	-2.259865	-0.518239	-1.106369	1
H	-2.566785	-1.042479	0.571751	1
H	-0.030265	-2.100979	0.225911	1
H	2.311375	-0.444599	-0.361389	1
H	1.888985	-0.111179	1.351231	1
H	2.426605	2.020791	0.796621	1
H	-1.290155	1.553121	-0.440359	1
Es	-0.944120	1.485211	-0.380008	99
Es	2.099051	-0.263261	-0.141129	99
Es	0.693257	2.243207	-0.145730	99
Es	2.181036	1.839508	0.520908	99
Es	-0.068907	-0.617873	-0.328062	99
Es	0.692009	2.617044	-0.164243	99
Es	1.815538	-0.033331	1.016079	99
Es	0.314813	1.794933	-0.467852	99
Es	-2.363196	-1.099198	0.280986	99
Es	1.672952	0.138755	0.307810	99
Es	1.768768	0.953936	0.202642	99
Es	-0.514345	-1.154885	-0.010188	99
Es	0.953316	0.012592	0.162239	99
Es	-0.033093	0.634554	-0.134236	99
Es	-2.161467	-0.740761	-0.849187	99
Es	1.268443	1.886313	0.002129	99
Es	0.198967	1.823582	0.091846	99
Es	-0.231676	1.339346	-0.239850	99
Es	-2.135264	-1.908599	-0.573623	99
Es	-0.187677	-1.800838	0.152693	99
Es	1.866517	1.576773	0.068776	99
Es	-1.972393	-1.229716	-0.327077	99
Es	-0.214810	-0.532824	0.310178	99
Es	1.990068	1.613611	-0.219698	99
Es	0.224369	-0.039782	0.003969	99
Es	-1.239845	-1.183319	-0.171278	99
41
Properties=species:S:1:pos:R:3:Z:I:1 energy=-302.92830277668105 field_type=dipole dipole="0.000000 0.000000 0.000000" charge=0
C	-1.972445	-1.229719	-0.327089	6
C	-0.514275	-1.154809	-0.010179	6
C	0.224295	-0.039909	0.003961	6
C	1.672975	0.138611	0.307831	6
N	1.867105	1.576801	0.068171	7
N	0.693195	2.243841	-0.145779	7
C	-0.231675	1.339361	-0.239809	6
H	-2.219075	-2.230618	-0.694509	1
H	-2.259865	-0.518239	-1.106369	1
H	-2.566785	-1.042479	0.571751	1
H	-0.030265	-2.100979	0.225911	1
H	2.311375	-0.444599	-0.361389	1
H	1.888985	-0.111179	1.351231	1
H	2.426605	2.020791	0.796621	1
H	-1.290155	1.553121	-0.440359	1
Es	-1.239020	-1.181440	-0.169358	99
Es	-0.068638	-0.618035	-0.328435	99
Es	0.691370	2.621582	-0.165554	99
Es	-2.140304	-1.912635	-0.573557	99
Es	0.224377	-0.039780	0.003950	99
Es	1.672951	0.138755	0.307810	99
Es	1.961491	1.611058	-0.200463	99
Es	1.866546	1.576760	0.068814	99
Es	-1.972393	-1.229716	-0.327077	99
Es	2.098509	-0.261386	-0.136704	99
Es	0.950103	0.009735	0.162573	99
Es	-0.032504	0.632317	-0.133807	99
Es	1.773292	0.951781	0.201083	99
Es	-2.162224	-0.742126	-0.844560	99
Es	0.200771	1.819650	0.089547	99
Es	-0.514346	-1.154884	-0.010187	99
Es	0.316459	1.790767	-0.464995	99
Es	-0.231690	1.339335	-0.239843	99
Es	-0.187960	-1.798555	0.152422	99
Es	0.693231	2.243224	-0.145732	99
Es	-0.944233	1.485056	-0.379241	99
Es	1.816685	-0.032410	1.009966	99
Es	-2.359627	-1.097435	0.274673	99
Es	2.206733	1.849164	0.503553	99
Es	-0.214695	-0.533229	0.311376	99
Es	1.267428	1.887425	0.001837	99
41
Properties=species:S:1:pos:R:3:Z:I:1 energy=-302.92830277668105 field_type=dipole dipole="0.000000 0.000000 0.000000" charge=0
C	-1.972445	-1.229719	-0.327089	6
C	-0.514275	-1.154809	-0.010179	6
C	0.224295	-0.039909	0.003961	6
C	1.672975	0.138611	0.307831	6
N	1.867105	1.576801	0.068171	7
N	0.693195	2.243841	-0.145779	7
C	-0.231675	1.339361	-0.239809	6
H	-2.219075	-2.230618	-0.694509	1
H	-2.259865	-0.518239	-1.106369	1
H	-2.566785	-1.042479	0.571751	1
H	-0.030265	-2.100979	0.225911	1
H	2.311375	-0.444599	-0.361389	1
H	1.888985	-0.111179	1.351231	1
H	2.426605	2.020791	0.796621	1
H	-1.290155	1.553121	-0.440359	1
Es	-0.231694	1.339336	-0.239829	99
Es	2.225150	1.854403	0.483328	99
Es	-2.163042	-0.743871	-0.841025	99
Es	1.775340	0.950954	0.200531	99
Es	0.201675	1.817246	0.088984	99
Es	-0.514348	-1.154884	-0.010185	99
Es	-0.214847	-0.533272	0.312494	99
Es	-1.972394	-1.229716	-0.327076	99
Es	-0.188235	-1.796468	0.152389	99
Es	-2.355896	-1.096678	0.269390	99
Es	0.693248	2.243210	-0.145731	99
Es	1.940741	1.610405	-0.181009	99
Es	-0.032188	0.630596	-0.133439	99
Es	0.692736	2.624047	-0.166054	99
Es	2.097814	-0.259897	-0.133250	99
Es	1.672951	0.138754	0.307810	99
Es	0.317730	1.788747	-0.464213	99
Es	1.866721	1.576768	0.068627	99
Es	0.224377	-0.039777	0.003959	99
Es	-2.144361	-1.914801	-0.572090	99
Es	-1.238471	-1.180080	-0.168831	99
Es	1.816495	-0.031278	1.004647	99
Es	-0.944182	1.484771	-0.378637	99
Es	1.266516	1.886856	0.003230	99
Es	-0.068295	-0.618252	-0.329053	99
Es	0.948767	0.007860	0.163129	99
41
Properties=species:S:1:pos:R:3:Z:I:1 energy=-302.92830277668105 field_type=dipole dipole="0.000000 0.000000 0.000000" charge=0
C	-1.972445	-1.229719	-0.327089	6
C	-0.514275	-1.154809	-0.010179	6
C	0.224295	-0.039909	0.003961	6
C	1.672975	0.138611	0.307831	6
N	1.867105	1.576801	0.068171	7
N	0.693195	2.243841	-0.145779	7
C	-0.231675	1.339361	-0.239809	6
H	-2.219075	-2.230618	-0.694509	1
H	-2.259865	-0.518239	-1.106369	1
H	-2.566785	-1.042479	0.571751	1
H	-0.030265	-2.100979	0.225911	1
H	2.311375	-0.444599	-0.361389	1
H	1.888985	-0.111179	1.351231	1
H	2.426605	2.020791	0.796621	1
H	-1.290155	1.553121	-0.440359	1
Es	1.866422	1.576793	0.068876	99
Es	-0.188399	-1.794383	0.152275	99
Es	-2.147676	-1.915827	-0.570122	99
Es	1.816036	-0.030292	1.000445	99
Es	0.318909	1.787222	-0.463773	99
Es	-1.972394	-1.229716	-0.327076	99
Es	0.224379	-0.039777	0.003955	99
Es	-1.238105	-1.179358	-0.169124	99
Es	-0.067981	-0.618380	-0.329826	99
Es	-0.231692	1.339335	-0.239837	99
Es	0.202289	1.815647	0.088986	99
Es	1.927142	1.610276	-0.161048	99
Es	0.695447	2.626108	-0.166162	99
Es	-0.943973	1.484676	-0.378356	99
Es	-2.352858	-1.096214	0.265226	99
Es	1.776369	0.950560	0.200403	99
Es	-0.514348	-1.154884	-0.010187	99
Es	0.948179	0.006887	0.163739	99
Es	-0.032125	0.628906	-0.133185	99
Es	0.693248	2.243206	-0.145731	99
Es	-0.215016	-0.533318	0.313373	99
Es	2.237492	1.857403	0.463877	99
Es	2.096871	-0.258579	-0.130541	99
Es	-2.163469	-0.745936	-0.838225	99
Es	1.264613	1.885868	0.002315	99
Es	1.672953	0.138753	0.307819	99
41
Properties=species:S:1:pos:R:3:Z:I:1 energy=-302.92830277668105 field_type=dipole dipole="0.000000 0.000000 0.000000" charge=0
C	-1.972445	-1.229719	-0.327089	6
C	-0.514275	-1.154809	-0.010179	6
C	0.224295	-0.039909	0.003961	6
C	1.672975	0.138611	0.307831	6
N	1.867105	1.576801	0.068171	7
N	0.693195	2.243841	-0.145779	7
C	-0.231675	1.339361	-0.239809	6
H	-2.219075	-2.230618	-0.694509	1
H	-2.259865	-0.518239	-1.106369	1
H	-2.566785	-1.042479	0.571751	1
H	-0.030265	-2.100979	0.225911	1
H	2.311375	-0.444599	-0.361389	1
H	1.888985	-0.111179	1.351231	1
H	2.426605	2.020791	0.796621	1
H	-1.290155	1.553121	-0.440359	1
Es	0.948034	0.006313	0.164455	99
Es	1.866363	1.576835	0.068786	99
Es	-0.943759	1.484613	-0.378325	99
Es	-1.972393	-1.229717	-0.327077	99
Es	1.672951	0.138755	0.307810	99
Es	2.095627	-0.257156	-0.128694	99
Es	-2.163705	-0.747849	-0.835758	99
Es	-0.032139	0.627273	-0.132984	99
Es	1.262567	1.884546	0.001523	99
Es	-1.237930	-1.178480	-0.169589	99
Es	0.698635	2.627586	-0.165553	99
Es	1.919036	1.611068	-0.146303	99
Es	1.776757	0.950351	0.200177	99
Es	2.244407	1.858718	0.449844	99
Es	-0.067741	-0.618562	-0.330227	99
Es	0.224374	-0.039766	0.003954	99
Es	-2.150543	-1.916366	-0.568005	99
Es	-0.215054	-0.533322	0.314109	99
Es	-0.188648	-1.792635	0.151988	99
Es	1.815996	-0.029686	0.997119	99
Es	0.693248	2.243205	-0.145731	99
Es	0.202769	1.814400	0.088936	99
Es	-0.231692	1.339334	-0.239840	99
Es	0.319593	1.786589	-0.463568	99
Es	-2.350093	-1.096188	0.261234	99
Es	-0.514349	-1.154884	-0.010187	99
41
Properties=species:S:1:pos:R:3:Z:I:1 energy=-302.92830277668105 field_type=dipole dipole="0.000000 0.000000 0.000000" charge=0
C	-1.972445	-1.229719	-0.327089	6
C	-0.514275	-1.154809	-0.010179	6
C	0.224295	-0.039909	0.003961	6
C	1.672975	0.138611	0.307831	6
N	1.867105	1.576801	0.068171	7
N	0.693195	2.243841	-0.145779	7
C	-0.231675	1.339361	-0.239809	6
H	-2.219075	-2.230618	-0.694509	1
H	-2.259865	-0.518239	-1.106369	1
H	-2.566785	-1.042479	0.571751	1
H	-0.030265	-2.100979	0.225911	1
H	2.311375	-0.444599	-0.361389	1
H	1.888985	-0.111179	1.351231	1
H	2.426605	2.020791	0.796621	1
H	-1.290155	1.553121	-0.440359	1
Es	-2.152867	-1.916534	-0.565942	99
Es	1.260724	1.883883	0.000526	99
Es	-0.032138	0.626184	-0.132767	99
Es	-0.188754	-1.790926	0.151650	99
Es	0.203395	1.813714	0.088920	99
Es	-1.972393	-1.229717	-0.327075	99
Es	1.913592	1.612041	-0.134542	99
Es	-0.514348	-1.154883	-0.010187	99
Es	1.866338	1.576855	0.068762	99
Es	2.094814	-0.256110	-0.127201	99
Es	0.948042	0.005928	0.164867	99
Es	2.248838	1.859339	0.438988	99
Es	-0.067622	-0.618635	-0.330419	99
Es	-1.237849	-1.178006	-0.170095	99
Es	-0.231692	1.339334	-0.239837	99
Es	0.320107	1.785656	-0.463597	99
Es	1.672951	0.138755	0.307811	99
Es	0.693241	2.243203	-0.145731	99
Es	-2.163977	-0.749441	-0.833672	99
Es	-2.347648	-1.096540	0.257788	99
Es	1.815650	-0.029141	0.994686	99
Es	0.701279	2.628522	-0.164834	99
Es	-0.215068	-0.533349	0.314463	99
Es	0.224377	-0.039777	0.003960	99
Es	1.776995	0.950079	0.199880	99
Es	-0.943672	1.484543	-0.378306	99
41
Properties=species:S:1:pos:R:3:Z:I:1 energy=-302.92830277668105 field_type=dipole dipole="0.000000 0.000000 0.000000" charge=0
C	-1.972445	-1.229719	-0.327089	6
C	-0.514275	-1.154809	-0.010179	6
C	0.224295	-0.039909	0.003961	6
C	1.672975	0.138611	0.307831	6
N	1.867105	1.576801	0.068171	7
N	0.693195	2.243841	-0.145779	7
C	-0.231675	1.339361	-0.239809	6
H	-2.219075	-2.230618	-0.694509	1
H	-2.259865	-0.518239	-1.106369	1
H	-2.566785	-1.042479	0.571751	1
H	-0.030265	-2.100979	0.225911	1
H	2.311375	-0.444599	-0.361389	1
H	1.888985	-0.111179	1.351231	1
H	2.426605	2.020791	0.796621	1
H	-1.290155	1.553121	-0.440359	1
Es	0.203788	1.813321	0.089011	99
Es	1.258455	1.883123	-0.000195	99
Es	-1.237848	-1.177461	-0.170433	99
Es	1.777457	0.949708	0.198967	99
Es	2.251771	1.859547	0.430985	99
Es	0.948151	0.005718	0.165269	99
Es	-2.164173	-0.750605	-0.831932	99
Es	-0.231694	1.339335	-0.239838	99
Es	1.909596	1.613149	-0.125592	99
Es	0.320347	1.785120	-0.463614	99
Es	2.094293	-0.255371	-0.125709	99
Es	0.224376	-0.039777	0.003964	99
Es	-0.188935	-1.789676	0.151603	99
Es	0.693247	2.243200	-0.145732	99
Es	-0.215133	-0.533289	0.314612	99
Es	1.672951	0.138753	0.307810	99
Es	1.866456	1.576794	0.068853	99
Es	-2.154851	-1.916485	-0.564106	99
Es	-1.972397	-1.229715	-0.327072	99
Es	-2.345465	-1.097119	0.254645	99
Es	-0.032038	0.625121	-0.132742	99
Es	-0.943599	1.484389	-0.378348	99
Es	-0.514350	-1.154883	-0.010188	99
Es	-0.067471	-0.618773	-0.330579	99
Es	0.704267	2.629273	-0.164038	99
Es	1.815111	-0.028421	0.992492	99
41
Properties=species:S:1:pos:R:3:Z:I:1 energy=-302.92830277668105 field_type=dipole dipole="0.000000 0.000000 0.000000" charge=0
C	-1.972445	-1.229719	-0.327089	6
C	-0.514275	-1.154809	-0.010179	6
C	0.224295	-0.039909	0.003961	6
C	1.672975	0.138611	0.307831	6
N	1.867105	1.576801	0.068171	7
N	0.693195	2.243841	-0.145779	7
C	-0.231675	1.339361	-0.239809	6
H	-2.219075	-2.230618	-0.694509	1
H	-2.259865	-0.518239	-1.106369	1
H	-2.566785	-1.042479	0.571751	1
H	-0.030265	-2.100979	0.225911	1
H	2.311375	-0.444599	-0.361389	1
H	1.888985	-0.111179	1.351231	1
H	2.426605	2.020791	0.796621	1
H	-1.290155	1.553121	-0.440359	1
Es	-2.343977	-1.097460	0.252169	99
Es	-0.231692	1.339333	-0.239839	99
Es	1.866139	1.577221	0.067952	99
Es	0.320808	1.785403	-0.463216	99
Es	-0.067470	-0.618770	-0.330659	99
Es	0.948260	0.005456	0.165740	99
Es	-1.237872	-1.176973	-0.170825	99
Es	-0.943560	1.484427	-0.378378	99
Es	-0.215093	-0.533336	0.314855	99
Es	1.672951	0.138759	0.307814	99
Es	-0.514348	-1.154883	-0.010191	99
Es	2.253929	1.859738	0.424120	99
Es	-2.164070	-0.751959	-0.830451	99
Es	-2.156372	-1.916353	-0.562632	99
Es	1.777474	0.949634	0.198992	99
Es	2.093572	-0.254579	-0.124743	99
Es	1.814905	-0.028033	0.990697	99
Es	-1.972392	-1.229715	-0.327075	99
Es	1.907283	1.613074	-0.116304	99
Es	1.256778	1.883003	-0.001981	99
Es	0.204023	1.812136	0.088782	99
Es	0.706479	2.629722	-0.163530	99
Es	-0.189072	-1.788561	0.151226	99
Es	0.693233	2.243188	-0.145731	99
Es	-0.031985	0.624281	-0.132655	99
Es	0.224378	-0.039777	0.003958	99
41
Properties=species:S:1:pos:R:3:Z:I:1 energy=-302.92830277668105 field_type=dipole dipole="0.000000 0.000000 0.000000" charge=0
C	-1.972445	-1.229719	-0.327089	6
C	-0.514275	-1.154809	-0.010179	6
C	0.224295	-0.039909	0.003961	6
C	1.672975	0.138611	0.307831	6
N	1.867105	1.576801	0.068171	7
N	0.693195	2.243841	-0.145779	7
C	-0.231675	1.339361	-0.239809	6
H	-2.219075	-2.230618	-0.694509	1
H	-2.259865	-0.518239	-1.106369	1
H	-2.566785	-1.042479	0.571751	1
H	-0.030265	-2.100979	0.225911	1
H	2.311375	-0.444599	-0.361389	1
H	1.888985	-0.111179	1.351231	1
H	2.426605	2.020791	0.796621	1
H	-1.290155	1.553121	-0.440359	1
Es	1.866447	1.576810	0.068882	99
Es	0.224379	-0.039778	0.003957	99
Es	0.708314	2.630004	-0.162858	99
Es	1.814458	-0.027620	0.988924	99
Es	1.777786	0.949510	0.199188	99
Es	-1.972409	-1.229710	-0.327050	99
Es	-2.158034	-1.916082	-0.561121	99
Es	-0.189205	-1.787774	0.151079	99
Es	-2.164235	-0.752650	-0.828977	99
Es	-0.067415	-0.618817	-0.330684	99
Es	0.321156	1.785621	-0.462917	99
Es	1.672955	0.138758	0.307807	99
Es	2.255356	1.859881	0.419183	99
Es	-0.943514	1.484458	-0.378485	99
Es	2.093151	-0.254034	-0.123917	99
Es	-2.342050	-1.098166	0.249751	99
Es	1.255256	1.882675	-0.002614	99
Es	-0.215136	-0.533298	0.314956	99
Es	0.204257	1.811216	0.088562	99
Es	0.693252	2.243184	-0.145730	99
Es	-1.237875	-1.176616	-0.171415	99
Es	-0.231692	1.339333	-0.239842	99
Es	-0.514346	-1.154884	-0.010188	99
Es	0.948386	0.005349	0.166094	99
Es	1.905053	1.614058	-0.111854	99
Es	-0.031983	0.623548	-0.132638	99
41
Properties=species:S:1:pos:R:3:Z:I:1 energy=-302.92830277668105 field_type=dipole dipole="0.000000 0.000000 0.000000" charge=0
C	-1.972445	-1.229719	-0.327089	6
C	-0.514275	-1.154809	-0.010179	6
C	0.224295	-0.039909	0.003961	6
C	1.672975	0.138611	0.307831	6
N	1.867105	1.576801	0.068171	7
N	0.693195	2.243841	-0.145779	7
C	-0.231675	1.339361	-0.239809	6
H	-2.219075	-2.230618	-0.694509	1
H	-2.259865	-0.518239	-1.106369	1
H	-2.566785	-1.042479	0.571751	1
H	-0.030265	-2.100979	0.225911	1
H	2.311375	-0.444599	-0.361389	1
H	1.888985	-0.111179	1.351231	1
H	2.426605	2.020791	0.796621	1
H	-1.290155	1.553121	-0.440359	1
Es	0.321129	1.785018	-0.462992	99
Es	0.224380	-0.039778	0.003952	99
Es	1.903569	1.614377	-0.106072	99
Es	0.948484	0.005445	0.166334	99
Es	1.866178	1.577077	0.068329	99
Es	1.777833	0.949360	0.198847	99
Es	0.204604	1.811395	0.088641	99
Es	-0.031853	0.622906	-0.132433	99
Es	-1.237963	-1.176131	-0.171674	99
Es	-0.215090	-0.533569	0.314853	99
Es	-2.164302	-0.753380	-0.827955	99
Es	-0.514348	-1.154883	-0.010190	99
Es	-2.340637	-1.098717	0.247626	99
Es	0.693244	2.243202	-0.145732	99
Es	-0.943591	1.484323	-0.378601	99
Es	1.672951	0.138758	0.307809	99
Es	-2.159278	-1.915841	-0.559696	99
Es	1.814183	-0.027248	0.987754	99
Es	-0.231693	1.339334	-0.239837	99
Es	2.092786	-0.253554	-0.123147	99
Es	1.253720	1.882390	-0.003311	99
Es	-0.189273	-1.787185	0.150955	99
Es	-1.972396	-1.229717	-0.327076	99
Es	-0.067366	-0.618632	-0.330652	99
Es	2.256691	1.859806	0.414559	99
Es	0.710348	2.630223	-0.162195	99
41
Properties=species:S:1:pos:R:3:Z:I:1 energy=-302.92830277668105 field_type=dipole dipole="0.000000 0.000000 0.000000" charge=0
C	-1.972445	-1.229719	-0.327089	6
C	-0.514275	-1.154809	-0.010179	6
C	0.224295	-0.039909	0.003961	6
C	1.672975	0.138611	0.307831	6
N	1.867105	1.576801	0.068171	7
N	0.693195	2.243841	-0.145779	7
C	-0.231675	1.339361	-0.239809	6
H	-2.219075	-2.230618	-0.694509	1
H	-2.259865	-0.518239	-1.106369	1
H	-2.566785	-1.042479	0.571751	1
H	-0.030265	-2.100979	0.225911	1
H	2.311375	-0.444599	-0.361389	1
H	1.888985	-0.111179	1.351231	1
H	2.426605	2.020791	0.796621	1
H	-1.290155	1.553121	-0.440359	1
Es	-0.189407	-1.786368	0.150729	99
Es	1.252014	1.882437	-0.004103	99
Es	0.948656	0.005316	0.166262	99
Es	1.902326	1.614607	-0.101269	99
Es	-0.514348	-1.154884	-0.010189	99
Es	1.813790	-0.026931	0.986834	99
Es	-0.067402	-0.618843	-0.330669	99
Es	-1.972393	-1.229717	-0.327076	99
Es	0.712158	2.630331	-0.161785	99
Es	-2.339442	-1.099189	0.245795	99
Es	-0.215049	-0.533363	0.315000	99
Es	0.204639	1.810794	0.088386	99
Es	1.672951	0.138755	0.307809	99
Es	2.092553	-0.253174	-0.122370	99
Es	-2.160342	-1.915615	-0.558512	99
Es	-1.238045	-1.175910	-0.171966	99
Es	0.321353	1.785288	-0.462663	99
Es	1.778197	0.949164	0.198565	99
Es	-2.164260	-0.754146	-0.826943	99
Es	0.693237	2.243171	-0.145730	99
Es	-0.943496	1.484395	-0.378650	99
Es	0.224379	-0.039777	0.003957	99
Es	1.866098	1.577228	0.068117	99
Es	-0.031840	0.622335	-0.132476	99
Es	2.257680	1.859740	0.410879	99
Es	-0.231693	1.339333	-0.239840	99
41
Properties=species:S:1:pos:R:3:Z:I:1 energy=-302.92830277668105 field_type=dipole dipole="0.000000 0.000000 0.000000" charge=0
C	-1.972445	-1.229719	-0.327089	6
C	-0.514275	-1.154809	-0.010179	6
C	0.224295	-0.039909	0.003961	6
C	1.672975	0.138611	0.307831	6
N	1.867105	1.576801	0.068171	7
N	0.693195	2.243841	-0.145779	7
C	-0.231675	1.339361	-0.239809	6
H	-2.219075	-2.230618	-0.694509	1
H	-2.259865	-0.518239	-1.106369	1
H	-2.566785	-1.042479	0.571751	1
H	-0.030265	-2.100979	0.225911	1
H	2.311375	-0.444599	-0.361389	1
H	1.888985	-0.111179	1.351231	1
H	2.426605	2.020791	0.796621	1
H	-1.290155	1.553121	-0.440359	1
Es	1.672956	0.138736	0.307827	99
Es	1.813774	-0.026799	0.985871	99
Es	0.321482	1.785240	-0.462563	99
Es	2.258354	1.859744	0.408133	99
Es	-0.514346	-1.154884	-0.010188	99
Es	-1.972393	-1.229717	-0.327076	99
Es	-0.031815	0.621760	-0.132401	99
Es	0.713022	2.630411	-0.161644	99
Es	1.900693	1.615576	-0.098232	99
Es	-0.215015	-0.533391	0.314999	99
Es	0.948779	0.005322	0.166485	99
Es	0.693241	2.243193	-0.145731	99
Es	-0.067445	-0.618815	-0.330566	99
Es	0.224378	-0.039777	0.003962	99
Es	-2.338290	-1.099595	0.243971	99
Es	-1.238238	-1.175130	-0.172465	99
Es	1.251352	1.882330	-0.004395	99
Es	2.091987	-0.252647	-0.122000	99
Es	-0.189458	-1.786094	0.150604	99
Es	-2.161449	-1.915351	-0.557242	99
Es	0.204808	1.810488	0.088333	99
Es	-0.231693	1.339334	-0.239841	99
Es	1.778640	0.948861	0.198019	99
Es	-0.943448	1.484425	-0.378644	99
Es	1.866534	1.576790	0.068803	99
Es	-2.164098	-0.755033	-0.825924	99
41
Properties=species:S:1:pos:R:3:Z:I:1 energy=-302.92830277668105 field_type=dipole dipole="0.000000 0.000000 0.000000" charge=0
C	-1.972445	-1.229719	-0.327089	6
C	-0.514275	-1.154809	-0.010179	6
C	0.224295	-0.039909	0.003961	6
C	1.672975	0.138611	0.307831	6
N	1.867105	1.576801	0.068171	7
N	0.693195	2.243841	-0.145779	7
C	-0.231675	1.339361	-0.239809	6
H	-2.219075	-2.230618	-0.694509	1
H	-2.259865	-0.518239	-1.106369	1
H	-2.566785	-1.042479	0.571751	1
H	-0.030265	-2.100979	0.225911	1
H	2.311375	-0.444599	-0.361389	1
H	1.888985	-0.111179	1.351231	1
H	2.426605	2.020791	0.796621	1
H	-1.290155	1.553121	-0.440359	1
Es	-0.943429	1.484418	-0.378717	99
Es	1.866592	1.576775	0.068765	99
Es	1.778349	0.948879	0.197873	99
Es	-0.189584	-1.785380	0.150473	99
Es	2.091883	-0.252422	-0.121457	99
Es	2.259003	1.859741	0.405274	99
Es	0.713508	2.630435	-0.161286	99
Es	-0.514348	-1.154883	-0.010192	99
Es	1.813467	-0.026483	0.985013	99
Es	0.693246	2.243187	-0.145731	99
Es	0.321498	1.784913	-0.462614	99
Es	1.672950	0.138758	0.307810	99
Es	-0.215025	-0.533423	0.315020	99
Es	-2.162211	-1.915121	-0.556454	99
Es	0.224379	-0.039778	0.003955	99
Es	1.899749	1.615857	-0.094557	99
Es	-1.238259	-1.175193	-0.172520	99
Es	0.948874	0.005103	0.166751	99
Es	0.205066	1.810509	0.088359	99
Es	-0.067401	-0.618814	-0.330685	99
Es	-0.231693	1.339333	-0.239838	99
Es	-1.972393	-1.229715	-0.327073	99
Es	-2.164167	-0.755394	-0.825156	99
Es	-0.031769	0.621500	-0.132302	99
Es	1.251344	1.882293	-0.005202	99
Es	-2.337319	-1.100118	0.242582	99
41
Properties=species:S:1:pos:R:3:Z:I:1 energy=-302.92830277668105 field_type=dipole dipole="0.000000 0.000000 0.000000" charge=0
C	-1.972445	-1.229719	-0.327089	6
C	-0.514275	-1.154809	-0.010179	6
C	0.224295	-0.039909	0.003961	6
C	1.672975	0.138611	0.307831	6
N	1.867105	1.576801	0.068171	7
N	0.693195	2.243841	-0.145779	7
C	-0.231675	1.339361	-0.239809	6
H	-2.219075	-2.230618	-0.694509	1
H	-2.259865	-0.518239	-1.106369	1
H	-2.566785	-1.042479	0.571751	1
H	-0.030265	-2.100979	0.225911	1
H	2.311375	-0.444599	-0.361389	1
H	1.888985	-0.111179	1.351231	1
H	2.426605	2.020791	0.796621	1
H	-1.290155	1.553121	-0.440359	1
Es	0.714746	2.630518	-0.160829	99
Es	-1.238311	-1.175209	-0.172611	99
Es	-0.514348	-1.154883	-0.010189	99
Es	0.204945	1.808768	0.087387	99
Es	-0.231693	1.339333	-0.239839	99
Es	1.778719	0.948654	0.197651	99
Es	2.259457	1.859643	0.403509	99
Es	1.250132	1.882328	-0.005614	99
Es	1.672952	0.138747	0.307811	99
Es	1.813155	-0.026235	0.984198	99
Es	-2.336538	-1.100581	0.241455	99
Es	0.224379	-0.039777	0.003957	99
Es	2.091697	-0.252166	-0.120976	99
Es	-1.972396	-1.229716	-0.327080	99
Es	-0.031724	0.621032	-0.132293	99
Es	-2.162734	-1.914968	-0.555803	99
Es	-0.189685	-1.784817	0.150305	99
Es	-0.214972	-0.533596	0.314963	99
Es	0.948998	0.005246	0.166765	99
Es	-0.067418	-0.618660	-0.330559	99
Es	-2.164277	-0.755622	-0.824598	99
Es	0.693243	2.243186	-0.145731	99
Es	0.321787	1.786453	-0.461591	99
Es	1.899572	1.615666	-0.091572	99
Es	-0.943449	1.484375	-0.378756	99
Es	1.866076	1.577259	0.068134	99
41
Properties=species:S:1:pos:R:3:Z:I:1 energy=-302.92830277668105 field_type=dipole dipole="0.000000 0.000000 0.000000" charge=0
C	-1.972445	-1.229719	-0.327089	6
C	-0.514275	-1.154809	-0.010179	6
C	0.224295	-0.039909	0.003961	6
C	1.672975	0.138611	0.307831	6
N	1.867105	1.576801	0.068171	7
N	0.693195	2.243841	-0.145779	7
C	-0.231675	1.339361	-0.239809	6
H	-2.219075	-2.230618	-0.694509	1
H	-2.259865	-0.518239	-1.106369	1
H	-2.566785	-1.042479	0.571751	1
H	-0.030265	-2.100979	0.225911	1
H	2.311375	-0.444599	-0.361389	1
H	1.888985	-0.111179	1.351231	1
H	2.426605	2.020791	0.796621	1
H	-1.290155	1.553121	-0.440359	1
Es	-2.335613	-1.100948	0.240064	99
Es	0.321794	1.785969	-0.461760	99
Es	-1.972393	-1.229718	-0.327076	99
Es	1.248728	1.882395	-0.006416	99
Es	-2.164187	-0.756163	-0.823938	99
Es	2.259836	1.859673	0.401589	99
Es	-2.163593	-1.914707	-0.554711	99
Es	1.778917	0.948607	0.197801	99
Es	0.205035	1.809110	0.087757	99
Es	-1.238449	-1.174684	-0.172964	99
Es	-0.943491	1.484337	-0.378868	99
Es	0.949063	0.005151	0.166958	99
Es	-0.214991	-0.533408	0.314972	99
Es	1.898764	1.616164	-0.089857	99
Es	-0.031597	0.620824	-0.132309	99
Es	0.693239	2.243194	-0.145731	99
Es	-0.067505	-0.618774	-0.330563	99
Es	0.716196	2.630442	-0.160615	99
Es	-0.189642	-1.784744	0.150206	99
Es	1.812670	-0.025850	0.983385	99
Es	-0.514348	-1.154883	-0.010188	99
Es	0.224378	-0.039777	0.003958	99
Es	1.672952	0.138758	0.307820	99
Es	-0.231692	1.339332	-0.239842	99
Es	2.091876	-0.252163	-0.120455	99
Es	1.866365	1.576839	0.068878	99
41
Properties=species:S:1:pos:R:3:Z:I:1 energy=-302.92830277668105 field_type=dipole dipole="0.000000 0.000000 0.000000" charge=0
C	-1.972445	-1.229719	-0.327089	6
C	-0.514275	-1.154809	-0.010179	6
C	0.224295	-0.039909	0.003961	6
C	1.672975	0.138611	0.307831	6
N	1.867105	1.576801	0.068171	7
N	0.693195	2.243841	-0.145779	7
C	-0.231675	1.339361	-0.239809	6
H	-2.219075	-2.230618	-0.694509	1
H	-2.259865	-0.518239	-1.106369	1
H	-2.566785	-1.042479	0.571751	1
H	-0.030265	-2.100979	0.225911	1
H	2.311375	-0.444599	-0.361389	1
H	1.888985	-0.111179	1.351231	1
H	2.426605	2.020791	0.796621	1
H	-1.290155	1.553121	-0.440359	1
Es	-1.972399	-1.229716	-0.327068	99
Es	-0.031627	0.620405	-0.132238	99
Es	0.949094	0.005328	0.167088	99
Es	1.778951	0.948531	0.197617	99
Es	0.321930	1.786480	-0.461274	99
Es	-2.334819	-1.101513	0.239205	99
Es	-0.514349	-1.154882	-0.010187	99
Es	1.672951	0.138758	0.307810	99
Es	0.716796	2.630464	-0.160460	99
Es	0.693241	2.243200	-0.145731	99
Es	-1.238538	-1.174431	-0.173277	99
Es	-0.943444	1.484370	-0.378871	99
Es	-0.214940	-0.533463	0.315024	99
Es	0.205089	1.808391	0.087342	99
Es	2.091527	-0.251878	-0.120388	99
Es	-0.231692	1.339333	-0.239841	99
Es	1.248279	1.882546	-0.007448	99
Es	2.260165	1.859630	0.400087	99
Es	0.224379	-0.039778	0.003959	99
Es	-2.164016	-1.914547	-0.554400	99
Es	-2.164400	-0.756356	-0.823056	99
Es	-0.067458	-0.618796	-0.330564	99
Es	1.866026	1.577809	0.066906	99
Es	1.898614	1.615265	-0.085171	99
Es	-0.189776	-1.784348	0.150130	99
Es	1.812729	-0.025828	0.982902	99
41
Properties=species:S:1:pos:R:3:Z:I:1 energy=-302.92830277668105 field_type=dipole dipole="0.000000 0.000000 0.000000" charge=0
C	-1.972445	-1.229719	-0.327089	6
C	-0.514275	-1.154809	-0.010179	6
C	0.224295	-0.039909	0.003961	6
C	1.672975	0.138611	0.307831	6
N	1.867105	1.576801	0.068171	7
N	0.693195	2.243841	-0.145779	7
C	-0.231675	1.339361	-0.239809	6
H	-2.219075	-2.230618	-0.694509	1
H	-2.259865	-0.518239	-1.106369	1
H	-2.566785	-1.042479	0.571751	1
H	-0.030265	-2.100979	0.225911	1
H	2.311375	-0.444599	-0.361389	1
H	1.888985	-0.111179	1.351231	1
H	2.426605	2.020791	0.796621	1
H	-1.290155	1.553121	-0.440359	1
Es	-0.031563	0.620280	-0.132212	99
Es	0.693243	2.243193	-0.145731	99
Es	-0.514348	-1.154883	-0.010190	99
Es	1.896675	1.616497	-0.083911	99
Es	-2.164719	-1.914310	-0.553458	99
Es	-1.238593	-1.174397	-0.173295	99
Es	2.091587	-0.251837	-0.119898	99
Es	1.812364	-0.025508	0.982259	99
Es	-1.972392	-1.229717	-0.327077	99
Es	-0.943472	1.484337	-0.378939	99
Es	0.949185	0.005194	0.167304	99
Es	0.205314	1.808796	0.087634	99
Es	-2.164281	-0.756703	-0.822722	99
Es	1.247976	1.882558	-0.007331	99
Es	-0.214933	-0.533493	0.314956	99
Es	1.867355	1.576929	0.067428	99
Es	1.672951	0.138758	0.307815	99
Es	-0.067488	-0.618743	-0.330532	99
Es	-0.231693	1.339332	-0.239842	99
Es	0.321907	1.785845	-0.461689	99
Es	1.778892	0.948487	0.197377	99
Es	-0.189820	-1.784010	0.150026	99
Es	2.260655	1.859471	0.398284	99
Es	0.717243	2.630477	-0.160105	99
Es	0.224380	-0.039778	0.003953	99
Es	-2.334116	-1.101797	0.237991	99
41
Properties=species:S:1:pos:R:3:Z:I:1 energy=-302.92830277668105 field_type=dipole dipole="0.000000 0.000000 0.000000" charge=0
C	-1.972445	-1.229719	-0.327089	6
C	-0.514275	-1.154809	-0.010179	6
C	0.224295	-0.039909	0.003961	6
C	1.672975	0.138611	0.307831	6
N	1.867105	1.576801	0.068171	7
N	0.693195	2.243841	-0.145779	7
C	-0.231675	1.339361	-0.239809	6
H	-2.219075	-2.230618	-0.694509	1
H	-2.259865	-0.518239	-1.106369	1
H	-2.566785	-1.042479	0.571751	1
H	-0.030265	-2.100979	0.225911	1
H	2.311375	-0.444599	-0.361389	1
H	1.888985	-0.111179	1.351231	1
H	2.426605	2.020791	0.796621	1
H	-1.290155	1.553121	-0.440359	1
Es	-2.164085	-0.757057	-0.822479	99
Es	2.260743	1.859551	0.397495	99
Es	1.246949	1.882822	-0.008780	99
Es	0.949249	0.005203	0.167367	99
Es	-1.238596	-1.174472	-0.173371	99
Es	-0.189936	-1.783638	0.150064	99
Es	0.322051	1.785888	-0.461483	99
Es	1.868805	1.577767	0.063445	99
Es	0.205331	1.808585	0.087502	99
Es	-0.231692	1.339333	-0.239844	99
Es	-2.333849	-1.101861	0.237415	99
Es	1.672952	0.138758	0.307814	99
Es	-1.972393	-1.229719	-0.327076	99
Es	1.778980	0.948454	0.197622	99
Es	-0.031532	0.620104	-0.132187	99
Es	0.718252	2.630450	-0.160029	99
Es	2.091740	-0.251851	-0.119455	99
Es	-0.514349	-1.154882	-0.010188	99
Es	-0.214946	-0.533462	0.314911	99
Es	1.895107	1.615444	-0.077936	99
Es	0.224378	-0.039777	0.003960	99
Es	-0.943498	1.484289	-0.378910	99
Es	1.811917	-0.025179	0.981528	99
Es	-2.165106	-1.914157	-0.553033	99
Es	0.693247	2.243211	-0.145731	99
Es	-0.067405	-0.618829	-0.330525	99
