47
Properties=species:S:1:pos:R:3:Z:I:1 energy=-305.27077506592724 field_type=dipole dipole="0.000000 0.000000 0.000000" charge=0
C	-0.664197	-1.744744	-1.724303	6
C	-0.672357	-1.228744	-0.293133	6
C	0.228364	-0.006874	-0.144793	6
N	-0.352947	1.229566	-0.744263	7
C	0.168983	2.003386	0.412237	6
C	0.177253	0.700176	1.236277	6
N	1.452034	0.548656	1.944757	7
H	-1.285067	-2.641924	-1.807533	1
H	0.351293	-2.000654	-2.042743	1
H	-1.055207	-0.995074	-2.419003	1
H	-0.312997	-2.025064	0.369747	1
H	-1.702327	-1.003794	0.010317	1
H	1.244443	-0.204594	-0.516123	1
H	-1.372807	1.225086	-0.786043	1
H	1.145043	2.460866	0.207767	1
H	-0.507117	2.783505	0.775557	1
H	-0.721137	0.526946	1.837047	1
H	2.272893	0.764906	1.377507	1
H	1.605853	-0.391624	2.306717	1
Es	1.463453	0.762929	2.219663	99
Es	-0.130539	0.663361	-0.530991	99
Es	-0.296898	2.542784	0.658830	99
Es	0.928358	-0.138559	-0.391993	99
Es	1.534775	-0.035240	2.135877	99
Es	-0.672345	-1.228752	-0.293161	99
Es	0.188602	1.404175	0.907343	99
Es	0.168919	2.003302	0.412134	99
Es	0.910537	0.585366	1.636813	99
Es	0.228262	-0.006775	-0.144867	99
Es	-1.089063	-2.358890	-1.779869	99
Es	-0.669163	-1.486012	-1.011639	99
Es	-0.433034	0.575034	1.643314	99
Es	0.031992	-1.918591	-1.936175	99
Es	0.209841	0.262429	0.583875	99
Es	1.927726	0.663299	1.570795	99
Es	-0.420961	-1.772088	0.165008	99
Es	-0.969631	1.210122	-0.725361	99
Es	-0.353123	1.229408	-0.743712	99
Es	-0.664197	-1.744741	-1.724274	99
Es	-0.155947	1.616140	-0.260138	99
Es	-1.378446	-1.062197	-0.083820	99
Es	0.177403	0.700174	1.236341	99
Es	-0.224020	-0.624705	-0.224476	99
Es	0.844767	2.299113	0.277349	99
Es	1.452023	0.548275	1.944284	99
Es	-0.230601	1.326791	-1.070998	99
Es	-0.932310	-1.233620	-2.192680	99
47
Properties=species:S:1:pos:R:3:Z:I:1 energy=-305.27077506592724 field_type=dipole dipole="0.000000 0.000000 0.000000" charge=0
C	-0.664197	-1.744744	-1.724303	6
C	-0.672357	-1.228744	-0.293133	6
C	0.228364	-0.006874	-0.144793	6
N	-0.352947	1.229566	-0.744263	7
C	0.168983	2.003386	0.412237	6
C	0.177253	0.700176	1.236277	6
N	1.452034	0.548656	1.944757	7
H	-1.285067	-2.641924	-1.807533	1
H	0.351293	-2.000654	-2.042743	1
H	-1.055207	-0.995074	-2.419003	1
H	-0.312997	-2.025064	0.369747	1
H	-1.702327	-1.003794	0.010317	1
H	1.244443	-0.204594	-0.516123	1
H	-1.372807	1.225086	-0.786043	1
H	1.145043	2.460866	0.207767	1
H	-0.507117	2.783505	0.775557	1
H	-0.721137	0.526946	1.837047	1
H	2.272893	0.764906	1.377507	1
H	1.605853	-0.391624	2.306717	1
Es	-0.420572	-1.772371	0.164296	99
Es	-0.297619	2.543104	0.658992	99
Es	-0.669212	-1.485952	-1.011635	99
Es	0.908732	0.587892	1.638202	99
Es	-0.664199	-1.744741	-1.724275	99
Es	-1.089691	-2.358651	-1.779377	99
Es	0.033369	-1.918673	-1.936230	99
Es	-0.353150	1.229413	-0.743719	99
Es	1.534751	-0.035614	2.136135	99
Es	-0.971643	1.211151	-0.727292	99
Es	-0.230516	1.326612	-1.067093	99
Es	-0.223987	-0.624576	-0.224372	99
Es	0.228266	-0.006776	-0.144860	99
Es	0.177403	0.700173	1.236338	99
Es	0.168921	2.003301	0.412134	99
Es	0.209555	0.262645	0.583110	99
Es	-0.932655	-1.233473	-2.191867	99
Es	1.452022	0.548264	1.944274	99
Es	0.845207	2.298839	0.277084	99
Es	0.929262	-0.138787	-0.391867	99
Es	-0.129162	0.662918	-0.531519	99
Es	1.928761	0.664946	1.571445	99
Es	1.464453	0.759053	2.217232	99
Es	-0.155183	1.615844	-0.260593	99
Es	-1.379660	-1.062218	-0.083871	99
Es	-0.672344	-1.228750	-0.293161	99
Es	0.188620	1.404088	0.906619	99
Es	-0.433349	0.574874	1.643340	99
47
Properties=species:S:1:pos:R:3:Z:I:1 energy=-305.27077506592724 field_type=dipole dipole="0.000000 0.000000 0.000000" charge=0
C	-0.664197	-1.744744	-1.724303	6
C	-0.672357	-1.228744	-0.293133	6
C	0.228364	-0.006874	-0.144793	6
N	-0.352947	1.229566	-0.744263	7
C	0.168983	2.003386	0.412237	6
C	0.177253	0.700176	1.236277	6
N	1.452034	0.548656	1.944757	7
H	-1.285067	-2.641924	-1.807533	1
H	0.351293	-2.000654	-2.042743	1
H	-1.055207	-0.995074	-2.419003	1
H	-0.312997	-2.025064	0.369747	1
H	-1.702327	-1.003794	0.010317	1
H	1.244443	-0.204594	-0.516123	1
H	-1.372807	1.225086	-0.786043	1
H	1.145043	2.460866	0.207767	1
H	-0.507117	2.783505	0.775557	1
H	-0.721137	0.526946	1.837047	1
H	2.272893	0.764906	1.377507	1
H	1.605853	-0.391624	2.306717	1
Es	0.929803	-0.138767	-0.391828	99
Es	0.188625	1.404086	0.906031	99
Es	-0.664198	-1.744741	-1.724274	99
Es	-0.353176	1.229405	-0.743706	99
Es	0.034200	-1.918813	-1.936312	99
Es	-1.380459	-1.062158	-0.083850	99
Es	0.845528	2.298507	0.276940	99
Es	0.209382	0.262669	0.582664	99
Es	-0.672345	-1.228750	-0.293162	99
Es	0.228263	-0.006776	-0.144869	99
Es	-0.433498	0.574831	1.643403	99
Es	0.907835	0.589244	1.639380	99
Es	-0.972619	1.211628	-0.728134	99
Es	-0.154424	1.616041	-0.260977	99
Es	0.168917	2.003301	0.412134	99
Es	-0.298136	2.543410	0.659154	99
Es	1.464965	0.756977	2.215714	99
Es	-0.128245	0.662506	-0.532050	99
Es	1.534883	-0.035994	2.136350	99
Es	-0.223792	-0.624699	-0.224325	99
Es	1.929086	0.666038	1.571471	99
Es	-1.090056	-2.358363	-1.779038	99
Es	-0.669165	-1.486027	-1.011643	99
Es	1.452018	0.548250	1.944249	99
Es	0.177401	0.700174	1.236335	99
Es	-0.420343	-1.772349	0.163860	99
Es	-0.932889	-1.233445	-2.191380	99
Es	-0.231181	1.326350	-1.064670	99
47
Properties=species:S:1:pos:R:3:Z:I:1 energy=-305.27077506592724 field_type=dipole dipole="0.000000 0.000000 0.000000" charge=0
C	-0.664197	-1.744744	-1.724303	6
C	-0.672357	-1.228744	-0.293133	6
C	0.228364	-0.006874	-0.144793	6
N	-0.352947	1.229566	-0.744263	7
C	0.168983	2.003386	0.412237	6
C	0.177253	0.700176	1.236277	6
N	1.452034	0.548656	1.944757	7
H	-1.285067	-2.641924	-1.807533	1
H	0.351293	-2.000654	-2.042743	1
H	-1.055207	-0.995074	-2.419003	1
H	-0.312997	-2.025064	0.369747	1
H	-1.702327	-1.003794	0.010317	1
H	1.244443	-0.204594	-0.516123	1
H	-1.372807	1.225086	-0.786043	1
H	1.145043	2.460866	0.207767	1
H	-0.507117	2.783505	0.775557	1
H	-0.721137	0.526946	1.837047	1
H	2.272893	0.764906	1.377507	1
H	1.605853	-0.391624	2.306717	1
Es	-0.153772	1.616369	-0.261431	99
Es	0.845644	2.298353	0.276828	99
Es	0.209310	0.262712	0.582415	99
Es	-0.672344	-1.228752	-0.293160	99
Es	0.188721	1.404068	0.905658	99
Es	-0.223768	-0.624633	-0.224357	99
Es	1.929348	0.666421	1.571294	99
Es	-0.664197	-1.744741	-1.724275	99
Es	0.228264	-0.006776	-0.144869	99
Es	-0.973041	1.211889	-0.728204	99
Es	0.930073	-0.138808	-0.391773	99
Es	0.177401	0.700174	1.236334	99
Es	-0.433598	0.574754	1.643534	99
Es	1.534628	-0.036142	2.135747	99
Es	0.168918	2.003302	0.412135	99
Es	-0.933052	-1.233410	-2.191163	99
Es	-0.669070	-1.485968	-1.011593	99
Es	-0.298471	2.543562	0.659260	99
Es	-0.126809	0.661870	-0.533140	99
Es	0.907078	0.590548	1.640371	99
Es	0.034648	-1.918789	-1.936253	99
Es	-1.380974	-1.062247	-0.083977	99
Es	-1.090244	-2.358355	-1.778723	99
Es	-0.232734	1.326466	-1.062601	99
Es	1.465734	0.755416	2.215292	99
Es	-0.353148	1.229409	-0.743728	99
Es	1.452034	0.548260	1.944278	99
Es	-0.420198	-1.772418	0.163571	99
47
Properties=species:S:1:pos:R:3:Z:I:1 energy=-305.27077506592724 field_type=dipole dipole="0.000000 0.000000 0.000000" charge=0
C	-0.664197	-1.744744	-1.724303	6
C	-0.672357	-1.228744	-0.293133	6
C	0.228364	-0.006874	-0.144793	6
N	-0.352947	1.229566	-0.744263	7
C	0.168983	2.003386	0.412237	6
C	0.177253	0.700176	1.236277	6
N	1.452034	0.548656	1.944757	7
H	-1.285067	-2.641924	-1.807533	1
H	0.351293	-2.000654	-2.042743	1
H	-1.055207	-0.995074	-2.419003	1
H	-0.312997	-2.025064	0.369747	1
H	-1.702327	-1.003794	0.010317	1
H	1.244443	-0.204594	-0.516123	1
H	-1.372807	1.225086	-0.786043	1
H	1.145043	2.460866	0.207767	1
H	-0.507117	2.783505	0.775557	1
H	-0.721137	0.526946	1.837047	1
H	2.272893	0.764906	1.377507	1
H	1.605853	-0.391624	2.306717	1
Es	-0.232887	1.327007	-1.061416	99
Es	-0.223710	-0.624813	-0.224156	99
Es	0.906602	0.591540	1.640872	99
Es	-0.433611	0.574775	1.643556	99
Es	1.466122	0.754148	2.215051	99
Es	1.534609	-0.036501	2.135091	99
Es	0.228263	-0.006776	-0.144869	99
Es	-0.126185	0.661685	-0.533930	99
Es	-0.298815	2.543737	0.659384	99
Es	-0.933061	-1.233409	-2.190786	99
Es	0.177402	0.700173	1.236340	99
Es	-0.353148	1.229415	-0.743723	99
Es	0.209279	0.262664	0.581983	99
Es	-0.672344	-1.228751	-0.293161	99
Es	0.845764	2.298173	0.276706	99
Es	0.930316	-0.138885	-0.391735	99
Es	1.929459	0.667022	1.571611	99
Es	0.188802	1.404142	0.905387	99
Es	0.168919	2.003300	0.412134	99
Es	-0.420122	-1.772461	0.163200	99
Es	0.035059	-1.918900	-1.936358	99
Es	1.452023	0.548291	1.944314	99
Es	-1.090530	-2.358122	-1.778674	99
Es	-0.973475	1.212093	-0.728558	99
Es	-0.664197	-1.744740	-1.724271	99
Es	-0.153701	1.615798	-0.261058	99
Es	-0.669089	-1.485923	-1.011618	99
Es	-1.381366	-1.062149	-0.083847	99
47
Properties=species:S:1:pos:R:3:Z:I:1 energy=-305.27077506592724 field_type=dipole dipole="0.000000 0.000000 0.000000" charge=0
C	-0.664197	-1.744744	-1.724303	6
C	-0.672357	-1.228744	-0.293133	6
C	0.228364	-0.006874	-0.144793	6
N	-0.352947	1.229566	-0.744263	7
C	0.168983	2.003386	0.412237	6
C	0.177253	0.700176	1.236277	6
N	1.452034	0.548656	1.944757	7
H	-1.285067	-2.641924	-1.807533	1
H	0.351293	-2.000654	-2.042743	1
H	-1.055207	-0.995074	-2.419003	1
H	-0.312997	-2.025064	0.369747	1
H	-1.702327	-1.003794	0.010317	1
H	1.244443	-0.204594	-0.516123	1
H	-1.372807	1.225086	-0.786043	1
H	1.145043	2.460866	0.207767	1
H	-0.507117	2.783505	0.775557	1
H	-0.721137	0.526946	1.837047	1
H	2.272893	0.764906	1.377507	1
H	1.605853	-0.391624	2.306717	1
Es	-0.933106	-1.233434	-2.190657	99
Es	0.228263	-0.006777	-0.144866	99
Es	1.534543	-0.036492	2.134900	99
Es	-1.381519	-1.062174	-0.083894	99
Es	-0.672345	-1.228751	-0.293161	99
Es	0.168919	2.003305	0.412132	99
Es	-0.234157	1.326832	-1.060152	99
Es	-0.420046	-1.772516	0.163117	99
Es	-0.125307	0.661385	-0.534847	99
Es	-0.299015	2.543786	0.659388	99
Es	-0.669095	-1.485886	-1.011524	99
Es	-0.973736	1.212180	-0.728271	99
Es	0.209250	0.262704	0.581852	99
Es	0.188757	1.404200	0.905241	99
Es	1.452039	0.548270	1.944311	99
Es	0.177405	0.700176	1.236332	99
Es	-0.152918	1.616215	-0.261391	99
Es	0.035217	-1.918867	-1.936387	99
Es	-0.433671	0.574698	1.643531	99
Es	-1.090619	-2.358123	-1.778582	99
Es	0.905867	0.592453	1.641584	99
Es	-0.664197	-1.744741	-1.724273	99
Es	-0.353174	1.229410	-0.743714	99
Es	0.845916	2.298089	0.276642	99
Es	-0.223727	-0.624687	-0.224232	99
Es	0.930493	-0.138952	-0.391725	99
Es	1.466856	0.753223	2.214578	99
Es	1.929486	0.667006	1.571541	99
47
Properties=species:S:1:pos:R:3:Z:I:1 energy=-305.27077506592724 field_type=dipole dipole="0.000000 0.000000 0.000000" charge=0
C	-0.664197	-1.744744	-1.724303	6
C	-0.672357	-1.228744	-0.293133	6
C	0.228364	-0.006874	-0.144793	6
N	-0.352947	1.229566	-0.744263	7
C	0.168983	2.003386	0.412237	6
C	0.177253	0.700176	1.236277	6
N	1.452034	0.548656	1.944757	7
H	-1.285067	-2.641924	-1.807533	1
H	0.351293	-2.000654	-2.042743	1
H	-1.055207	-0.995074	-2.419003	1
H	-0.312997	-2.025064	0.369747	1
H	-1.702327	-1.003794	0.010317	1
H	1.244443	-0.204594	-0.516123	1
H	-1.372807	1.225086	-0.786043	1
H	1.145043	2.460866	0.207767	1
H	-0.507117	2.783505	0.775557	1
H	-0.721137	0.526946	1.837047	1
H	2.272893	0.764906	1.377507	1
H	1.605853	-0.391624	2.306717	1
Es	-0.223757	-0.624737	-0.224191	99
Es	1.467066	0.752472	2.214676	99
Es	0.905724	0.593009	1.642124	99
Es	0.188851	1.404233	0.905020	99
Es	0.035443	-1.918911	-1.936403	99
Es	1.534443	-0.036776	2.134246	99
Es	1.452028	0.548286	1.944326	99
Es	-0.973974	1.212516	-0.728306	99
Es	-0.669041	-1.485999	-1.011472	99
Es	-0.664197	-1.744741	-1.724273	99
Es	0.228264	-0.006777	-0.144869	99
Es	0.930612	-0.138927	-0.391659	99
Es	-0.125008	0.661202	-0.535064	99
Es	-1.381778	-1.062264	-0.083918	99
Es	-0.419967	-1.772417	0.162982	99
Es	1.929511	0.667453	1.571469	99
Es	-0.933194	-1.233413	-2.190522	99
Es	0.177402	0.700173	1.236336	99
Es	0.209215	0.262673	0.581587	99
Es	-0.234582	1.326624	-1.059388	99
Es	0.845909	2.297943	0.276627	99
Es	-1.090694	-2.358017	-1.778477	99
Es	-0.353185	1.229404	-0.743697	99
Es	-0.672345	-1.228751	-0.293161	99
Es	0.168919	2.003301	0.412134	99
Es	-0.433650	0.574727	1.643601	99
Es	-0.152432	1.616324	-0.261756	99
Es	-0.299201	2.543921	0.659499	99
47
Properties=species:S:1:pos:R:3:Z:I:1 energy=-305.27077506592724 field_type=dipole dipole="0.000000 0.000000 0.000000" charge=0
C	-0.664197	-1.744744	-1.724303	6
C	-0.672357	-1.228744	-0.293133	6
C	0.228364	-0.006874	-0.144793	6
N	-0.352947	1.229566	-0.744263	7
C	0.168983	2.003386	0.412237	6
C	0.177253	0.700176	1.236277	6
N	1.452034	0.548656	1.944757	7
H	-1.285067	-2.641924	-1.807533	1
H	0.351293	-2.000654	-2.042743	1
H	-1.055207	-0.995074	-2.419003	1
H	-0.312997	-2.025064	0.369747	1
H	-1.702327	-1.003794	0.010317	1
H	1.244443	-0.204594	-0.516123	1
H	-1.372807	1.225086	-0.786043	1
H	1.145043	2.460866	0.207767	1
H	-0.507117	2.783505	0.775557	1
H	-0.721137	0.526946	1.837047	1
H	2.272893	0.764906	1.377507	1
H	1.605853	-0.391624	2.306717	1
Es	-0.299390	2.544044	0.659530	99
Es	-0.669061	-1.485849	-1.011575	99
Es	-0.223708	-0.624877	-0.224098	99
Es	-0.353115	1.229432	-0.743778	99
Es	0.177402	0.700174	1.236332	99
Es	0.209248	0.262653	0.581411	99
Es	-0.974053	1.212565	-0.728261	99
Es	-0.419959	-1.772516	0.162778	99
Es	-0.672343	-1.228754	-0.293160	99
Es	1.467174	0.751993	2.214693	99
Es	0.168918	2.003301	0.412133	99
Es	1.452017	0.548260	1.944266	99
Es	-0.933189	-1.233442	-2.190357	99
Es	0.845955	2.297813	0.276537	99
Es	-0.152307	1.616290	-0.261693	99
Es	0.905599	0.593496	1.642244	99
Es	-0.235103	1.326775	-1.058739	99
Es	-0.124516	0.660985	-0.535445	99
Es	0.188965	1.404278	0.904902	99
Es	-0.664197	-1.744741	-1.724273	99
Es	1.929677	0.667609	1.571598	99
Es	-1.381947	-1.062177	-0.083878	99
Es	0.228263	-0.006777	-0.144869	99
Es	0.035646	-1.918874	-1.936390	99
Es	1.534222	-0.036911	2.133958	99
Es	-1.090844	-2.358015	-1.778406	99
Es	0.930717	-0.138915	-0.391667	99
Es	-0.433689	0.574711	1.643677	99
47
Properties=species:S:1:pos:R:3:Z:I:1 energy=-305.27077506592724 field_type=dipole dipole="0.000000 0.000000 0.000000" charge=0
C	-0.664197	-1.744744	-1.724303	6
C	-0.672357	-1.228744	-0.293133	6
C	0.228364	-0.006874	-0.144793	6
N	-0.352947	1.229566	-0.744263	7
C	0.168983	2.003386	0.412237	6
C	0.177253	0.700176	1.236277	6
N	1.452034	0.548656	1.944757	7
H	-1.285067	-2.641924	-1.807533	1
H	0.351293	-2.000654	-2.042743	1
H	-1.055207	-0.995074	-2.419003	1
H	-0.312997	-2.025064	0.369747	1
H	-1.702327	-1.003794	0.010317	1
H	1.244443	-0.204594	-0.516123	1
H	-1.372807	1.225086	-0.786043	1
H	1.145043	2.460866	0.207767	1
H	-0.507117	2.783505	0.775557	1
H	-0.721137	0.526946	1.837047	1
H	2.272893	0.764906	1.377507	1
H	1.605853	-0.391624	2.306717	1
Es	-0.223644	-0.624739	-0.224137	99
Es	0.846003	2.297705	0.276524	99
Es	-1.090931	-2.357975	-1.778370	99
Es	-0.974138	1.212429	-0.728335	99
Es	-0.353160	1.229400	-0.743680	99
Es	-0.672345	-1.228751	-0.293161	99
Es	0.035769	-1.918897	-1.936362	99
Es	-1.382077	-1.062258	-0.083871	99
Es	0.930828	-0.138959	-0.391675	99
Es	-0.664197	-1.744741	-1.724274	99
Es	-0.669053	-1.485933	-1.011569	99
Es	0.177401	0.700175	1.236335	99
Es	1.452032	0.548261	1.944279	99
Es	1.929750	0.667681	1.571492	99
Es	0.188960	1.404276	0.904740	99
Es	-0.419877	-1.772491	0.162687	99
Es	-0.152217	1.616475	-0.261710	99
Es	-0.235587	1.326887	-1.058102	99
Es	0.209100	0.262560	0.581336	99
Es	0.228265	-0.006780	-0.144871	99
Es	1.467457	0.751472	2.214518	99
Es	-0.933200	-1.233362	-2.190250	99
Es	0.905358	0.593916	1.642680	99
Es	1.534135	-0.036934	2.133754	99
Es	-0.433654	0.574776	1.643687	99
Es	0.168920	2.003300	0.412133	99
Es	-0.299491	2.544114	0.659638	99
Es	-0.124026	0.660925	-0.535969	99
47
Properties=species:S:1:pos:R:3:Z:I:1 energy=-305.27077506592724 field_type=dipole dipole="0.000000 0.000000 0.000000" charge=0
C	-0.664197	-1.744744	-1.724303	6
C	-0.672357	-1.228744	-0.293133	6
C	0.228364	-0.006874	-0.144793	6
N	-0.352947	1.229566	-0.744263	7
C	0.168983	2.003386	0.412237	6
C	0.177253	0.700176	1.236277	6
N	1.452034	0.548656	1.944757	7
H	-1.285067	-2.641924	-1.807533	1
H	0.351293	-2.000654	-2.042743	1
H	-1.055207	-0.995074	-2.419003	1
H	-0.312997	-2.025064	0.369747	1
H	-1.702327	-1.003794	0.010317	1
H	1.244443	-0.204594	-0.516123	1
H	-1.372807	1.225086	-0.786043	1
H	1.145043	2.460866	0.207767	1
H	-0.507117	2.783505	0.775557	1
H	-0.721137	0.526946	1.837047	1
H	2.272893	0.764906	1.377507	1
H	1.605853	-0.391624	2.306717	1
Es	1.929747	0.667904	1.571550	99
Es	-0.353189	1.229414	-0.743708	99
Es	-0.419871	-1.772616	0.162592	99
Es	-0.151773	1.616751	-0.261922	99
Es	0.228263	-0.006778	-0.144869	99
Es	0.846105	2.297648	0.276472	99
Es	-1.090865	-2.357923	-1.778226	99
Es	-0.433773	0.574674	1.643661	99
Es	-0.672345	-1.228751	-0.293162	99
Es	0.168918	2.003302	0.412133	99
Es	-0.299651	2.544140	0.659648	99
Es	1.534134	-0.037053	2.133423	99
Es	-1.382119	-1.062174	-0.083848	99
Es	1.452023	0.548258	1.944264	99
Es	0.905167	0.594295	1.642959	99
Es	0.177401	0.700174	1.236337	99
Es	-0.933232	-1.233671	-2.190390	99
Es	1.467614	0.751024	2.214534	99
Es	0.188972	1.404314	0.904596	99
Es	-0.223650	-0.624781	-0.224053	99
Es	-0.974160	1.212676	-0.728256	99
Es	-0.123917	0.660780	-0.536042	99
Es	0.209244	0.262615	0.581221	99
Es	0.035852	-1.918927	-1.936371	99
Es	-0.664197	-1.744740	-1.724273	99
Es	0.930892	-0.139035	-0.391668	99
Es	-0.236011	1.326538	-1.057657	99
Es	-0.669199	-1.485522	-1.011473	99
47
Properties=species:S:1:pos:R:3:Z:I:1 energy=-305.27077506592724 field_type=dipole dipole="0.000000 0.000000 0.000000" charge=0
C	-0.664197	-1.744744	-1.724303	6
C	-0.672357	-1.228744	-0.293133	6
C	0.228364	-0.006874	-0.144793	6
N	-0.352947	1.229566	-0.744263	7
C	0.168983	2.003386	0.412237	6
C	0.177253	0.700176	1.236277	6
N	1.452034	0.548656	1.944757	7
H	-1.285067	-2.641924	-1.807533	1
H	0.351293	-2.000654	-2.042743	1
H	-1.055207	-0.995074	-2.419003	1
H	-0.312997	-2.025064	0.369747	1
H	-1.702327	-1.003794	0.010317	1
H	1.244443	-0.204594	-0.516123	1
H	-1.372807	1.225086	-0.786043	1
H	1.145043	2.460866	0.207767	1
H	-0.507117	2.783505	0.775557	1
H	-0.721137	0.526946	1.837047	1
H	2.272893	0.764906	1.377507	1
H	1.605853	-0.391624	2.306717	1
Es	-0.353180	1.229417	-0.743725	99
Es	-0.933241	-1.233490	-2.190116	99
Es	0.177402	0.700174	1.236335	99
Es	0.228263	-0.006777	-0.144871	99
Es	1.468216	0.750548	2.214735	99
Es	-0.974230	1.212693	-0.728219	99
Es	1.929566	0.667817	1.571442	99
Es	-0.123593	0.660663	-0.536171	99
Es	-0.223655	-0.624857	-0.224083	99
Es	0.209226	0.262529	0.581109	99
Es	-0.433719	0.574725	1.643719	99
Es	-0.151666	1.616765	-0.262001	99
Es	-1.091037	-2.357859	-1.778248	99
Es	1.452040	0.548233	1.944301	99
Es	-0.236260	1.326616	-1.057320	99
Es	0.846086	2.297623	0.276489	99
Es	0.168920	2.003302	0.412133	99
Es	-0.419871	-1.772559	0.162502	99
Es	-0.669090	-1.485771	-1.011530	99
Es	0.930956	-0.138974	-0.391685	99
Es	-0.299750	2.544172	0.659639	99
Es	0.904846	0.595118	1.643518	99
Es	-0.664197	-1.744740	-1.724273	99
Es	-0.672345	-1.228751	-0.293161	99
Es	0.035977	-1.918947	-1.936440	99
Es	1.533934	-0.037278	2.132695	99
Es	0.189028	1.404319	0.904542	99
Es	-1.382245	-1.062179	-0.083844	99
47
Properties=species:S:1:pos:R:3:Z:I:1 energy=-305.27077506592724 field_type=dipole dipole="0.000000 0.000000 0.000000" charge=0
C	-0.664197	-1.744744	-1.724303	6
C	-0.672357	-1.228744	-0.293133	6
C	0.228364	-0.006874	-0.144793	6
N	-0.352947	1.229566	-0.744263	7
C	0.168983	2.003386	0.412237	6
C	0.177253	0.700176	1.236277	6
N	1.452034	0.548656	1.944757	7
H	-1.285067	-2.641924	-1.807533	1
H	0.351293	-2.000654	-2.042743	1
H	-1.055207	-0.995074	-2.419003	1
H	-0.312997	-2.025064	0.369747	1
H	-1.702327	-1.003794	0.010317	1
H	1.244443	-0.204594	-0.516123	1
H	-1.372807	1.225086	-0.786043	1
H	1.145043	2.460866	0.207767	1
H	-0.507117	2.783505	0.775557	1
H	-0.721137	0.526946	1.837047	1
H	2.272893	0.764906	1.377507	1
H	1.605853	-0.391624	2.306717	1
Es	-0.151527	1.616559	-0.262027	99
Es	-0.933216	-1.233341	-2.189989	99
Es	0.189062	1.404347	0.904456	99
Es	-0.419912	-1.772412	0.162394	99
Es	-0.353179	1.229412	-0.743706	99
Es	-0.433702	0.574741	1.643777	99
Es	0.228265	-0.006776	-0.144870	99
Es	1.452031	0.548261	1.944282	99
Es	0.168920	2.003299	0.412133	99
Es	-0.664197	-1.744741	-1.724273	99
Es	-0.123264	0.660373	-0.536799	99
Es	0.177402	0.700174	1.236337	99
Es	0.904919	0.594713	1.643229	99
Es	-0.223538	-0.624789	-0.224002	99
Es	0.846089	2.297500	0.276433	99
Es	1.534071	-0.037175	2.133127	99
Es	-0.668992	-1.486023	-1.011533	99
Es	1.467841	0.750625	2.214486	99
Es	-0.236633	1.326848	-1.056688	99
Es	-1.382371	-1.062206	-0.083802	99
Es	-0.299812	2.544288	0.659683	99
Es	0.036005	-1.918928	-1.936430	99
Es	-0.672345	-1.228752	-0.293161	99
Es	1.929722	0.668016	1.571502	99
Es	0.209170	0.262487	0.581061	99
Es	-1.091118	-2.357870	-1.778308	99
Es	0.931018	-0.139062	-0.391687	99
Es	-0.974328	1.212964	-0.728153	99
47
Properties=species:S:1:pos:R:3:Z:I:1 energy=-305.27077506592724 field_type=dipole dipole="0.000000 0.000000 0.000000" charge=0
C	-0.664197	-1.744744	-1.724303	6
C	-0.672357	-1.228744	-0.293133	6
C	0.228364	-0.006874	-0.144793	6
N	-0.352947	1.229566	-0.744263	7
C	0.168983	2.003386	0.412237	6
C	0.177253	0.700176	1.236277	6
N	1.452034	0.548656	1.944757	7
H	-1.285067	-2.641924	-1.807533	1
H	0.351293	-2.000654	-2.042743	1
H	-1.055207	-0.995074	-2.419003	1
H	-0.312997	-2.025064	0.369747	1
H	-1.702327	-1.003794	0.010317	1
H	1.244443	-0.204594	-0.516123	1
H	-1.372807	1.225086	-0.786043	1
H	1.145043	2.460866	0.207767	1
H	-0.507117	2.783505	0.775557	1
H	-0.721137	0.526946	1.837047	1
H	2.272893	0.764906	1.377507	1
H	1.605853	-0.391624	2.306717	1
Es	0.189148	1.404263	0.904427	99
Es	0.931089	-0.139055	-0.391657	99
Es	-0.151428	1.616792	-0.262033	99
Es	-0.236801	1.326672	-1.056180	99
Es	-0.669083	-1.485811	-1.011508	99
Es	1.929664	0.667779	1.571312	99
Es	-1.382419	-1.062197	-0.083814	99
Es	0.228264	-0.006778	-0.144869	99
Es	0.036167	-1.918933	-1.936507	99
Es	0.209225	0.262561	0.581011	99
Es	1.467996	0.750802	2.214899	99
Es	-1.091082	-2.357784	-1.778172	99
Es	-0.933356	-1.233464	-2.189939	99
Es	0.846085	2.297491	0.276380	99
Es	-0.223616	-0.624807	-0.224019	99
Es	-0.672344	-1.228751	-0.293161	99
Es	-0.664197	-1.744741	-1.724275	99
Es	-0.353174	1.229402	-0.743677	99
Es	-0.299824	2.544315	0.659646	99
Es	0.168917	2.003302	0.412133	99
Es	0.177401	0.700172	1.236334	99
Es	0.905030	0.594818	1.643306	99
Es	-0.419805	-1.772578	0.162334	99
Es	1.533841	-0.037225	2.132789	99
Es	-0.433836	0.574690	1.643786	99
Es	1.452026	0.548263	1.944289	99
Es	-0.974403	1.212979	-0.728477	99
Es	-0.123103	0.660357	-0.536886	99
47
Properties=species:S:1:pos:R:3:Z:I:1 energy=-305.27077506592724 field_type=dipole dipole="0.000000 0.000000 0.000000" charge=0
C	-0.664197	-1.744744	-1.724303	6
C	-0.672357	-1.228744	-0.293133	6
C	0.228364	-0.006874	-0.144793	6
N	-0.352947	1.229566	-0.744263	7
C	0.168983	2.003386	0.412237	6
C	0.177253	0.700176	1.236277	6
N	1.452034	0.548656	1.944757	7
H	-1.285067	-2.641924	-1.807533	1
H	0.351293	-2.000654	-2.042743	1
H	-1.055207	-0.995074	-2.419003	1
H	-0.312997	-2.025064	0.369747	1
H	-1.702327	-1.003794	0.010317	1
H	1.244443	-0.204594	-0.516123	1
H	-1.372807	1.225086	-0.786043	1
H	1.145043	2.460866	0.207767	1
H	-0.507117	2.783505	0.775557	1
H	-0.721137	0.526946	1.837047	1
H	2.272893	0.764906	1.377507	1
H	1.605853	-0.391624	2.306717	1
Es	0.036169	-1.919032	-1.936508	99
Es	-0.223577	-0.624831	-0.224014	99
Es	-0.933241	-1.233519	-2.189943	99
Es	1.468146	0.750181	2.214288	99
Es	0.209200	0.262441	0.580943	99
Es	-0.353146	1.229417	-0.743728	99
Es	0.177402	0.700173	1.236336	99
Es	-0.669102	-1.485682	-1.011447	99
Es	-0.974320	1.212803	-0.727913	99
Es	1.929674	0.668065	1.571417	99
Es	-0.419803	-1.772582	0.162221	99
Es	-0.672344	-1.228753	-0.293161	99
Es	1.452054	0.548256	1.944307	99
Es	-0.433732	0.574707	1.643823	99
Es	-0.299912	2.544374	0.659733	99
Es	-0.122823	0.660387	-0.537163	99
Es	-0.664197	-1.744741	-1.724274	99
Es	-1.091181	-2.357711	-1.778196	99
Es	0.189163	1.404378	0.904377	99
Es	0.904742	0.595281	1.643670	99
Es	0.846086	2.297415	0.276346	99
Es	-0.237401	1.326674	-1.056193	99
Es	1.533922	-0.037358	2.132859	99
Es	0.168916	2.003298	0.412132	99
Es	-0.151192	1.616939	-0.262137	99
Es	-1.382478	-1.062187	-0.083752	99
Es	0.228263	-0.006778	-0.144869	99
Es	0.931090	-0.139082	-0.391683	99
47
Properties=species:S:1:pos:R:3:Z:I:1 energy=-305.27077506592724 field_type=dipole dipole="0.000000 0.000000 0.000000" charge=0
C	-0.664197	-1.744744	-1.724303	6
C	-0.672357	-1.228744	-0.293133	6
C	0.228364	-0.006874	-0.144793	6
N	-0.352947	1.229566	-0.744263	7
C	0.168983	2.003386	0.412237	6
C	0.177253	0.700176	1.236277	6
N	1.452034	0.548656	1.944757	7
H	-1.285067	-2.641924	-1.807533	1
H	0.351293	-2.000654	-2.042743	1
H	-1.055207	-0.995074	-2.419003	1
H	-0.312997	-2.025064	0.369747	1
H	-1.702327	-1.003794	0.010317	1
H	1.244443	-0.204594	-0.516123	1
H	-1.372807	1.225086	-0.786043	1
H	1.145043	2.460866	0.207767	1
H	-0.507117	2.783505	0.775557	1
H	-0.721137	0.526946	1.837047	1
H	2.272893	0.764906	1.377507	1
H	1.605853	-0.391624	2.306717	1
Es	-0.672345	-1.228751	-0.293161	99
Es	0.168919	2.003300	0.412133	99
Es	-0.974281	1.212813	-0.727726	99
Es	-0.223606	-0.624847	-0.224003	99
Es	-0.433716	0.574745	1.643824	99
Es	0.177402	0.700175	1.236337	99
Es	-0.664197	-1.744741	-1.724273	99
Es	-0.151111	1.617003	-0.262206	99
Es	0.904579	0.595561	1.643923	99
Es	-0.353123	1.229426	-0.743754	99
Es	0.846084	2.297353	0.276339	99
Es	0.228263	-0.006778	-0.144870	99
Es	-0.933310	-1.233497	-2.189849	99
Es	0.189171	1.404343	0.904312	99
Es	-0.122552	0.660174	-0.537488	99
Es	1.452018	0.548366	1.944403	99
Es	-1.091191	-2.357712	-1.778163	99
Es	0.931145	-0.139063	-0.391657	99
Es	0.036281	-1.918977	-1.936507	99
Es	-0.299963	2.544418	0.659770	99
Es	-0.419795	-1.772529	0.162305	99
Es	1.533861	-0.037402	2.132317	99
Es	1.929713	0.668236	1.571384	99
Es	1.468346	0.749672	2.214536	99
Es	-1.382514	-1.062174	-0.083822	99
Es	-0.669088	-1.485835	-1.011514	99
Es	0.209160	0.262479	0.580837	99
Es	-0.237773	1.326775	-1.055956	99
