41
Properties=species:S:1:pos:R:3:Z:I:1 energy=-302.9358906263365 field_type=dipole dipole="0.000000 0.000000 0.000000" charge=0
C	-1.816635	-1.825236	-0.065691	6
C	-0.480795	-1.764186	-0.099001	6
C	0.289135	-0.512276	0.049609	6
N	1.587245	-0.486576	0.067559	7
N	1.937455	0.808204	0.265689	7
C	0.843875	1.718724	-0.047281	6
C	-0.362855	0.834854	0.199199	6
H	-2.318895	-2.781766	-0.175981	1
H	-2.445265	-0.953376	0.075699	1
H	0.116705	-2.661066	-0.230871	1
H	2.811395	1.051904	-0.202131	1
H	0.891315	2.021784	-1.099271	1
H	0.848805	2.611814	0.582959	1
H	-1.151535	0.999424	-0.537951	1
H	-0.749955	0.937774	1.217469	1
Es	-0.898836	0.943155	-0.295877	99
Es	-2.163165	-2.468149	-0.140140	99
Es	0.873988	1.925655	-0.773981	99
Es	-0.621789	0.900760	0.885923	99
Es	0.851733	2.329309	0.379980	99
Es	-0.099992	-1.135364	-0.021273	99
Es	0.219637	1.302653	0.079175	99
Es	1.467681	1.204668	0.100179	99
Es	-1.816733	-1.825237	-0.065681	99
Es	-0.362812	0.834828	0.199189	99
Es	0.843954	1.718619	-0.047248	99
Es	-0.078654	-2.366390	-0.188709	99
Es	1.960181	0.786486	0.582489	99
Es	-0.480677	-1.764122	-0.098993	99
Es	0.974782	-0.482978	-0.237212	99
Es	0.978910	-0.545851	0.333459	99
Es	0.289097	-0.512298	0.049627	99
Es	1.937237	0.808027	0.264973	99
Es	1.750392	0.180980	0.123356	99
Es	-0.070013	0.152212	0.118788	99
Es	-2.243027	-1.234677	0.029271	99
Es	1.586852	-0.486068	0.067613	99
Es	-1.133713	-1.819226	0.237762	99
Es	1.848335	-0.752061	0.038172	99
Es	2.452688	0.949767	-0.036400	99
Es	-1.153058	-1.733182	-0.401632	99
41
Properties=species:S:1:pos:R:3:Z:I:1 energy=-302.9358906263365 field_type=dipole dipole="0.000000 0.000000 0.000000" charge=0
C	-1.816635	-1.825236	-0.065691	6
C	-0.480795	-1.764186	-0.099001	6
C	0.289135	-0.512276	0.049609	6
N	1.587245	-0.486576	0.067559	7
N	1.937455	0.808204	0.265689	7
C	0.843875	1.718724	-0.047281	6
C	-0.362855	0.834854	0.199199	6
H	-2.318895	-2.781766	-0.175981	1
H	-2.445265	-0.953376	0.075699	1
H	0.116705	-2.661066	-0.230871	1
H	2.811395	1.051904	-0.202131	1
H	0.891315	2.021784	-1.099271	1
H	0.848805	2.611814	0.582959	1
H	-1.151535	0.999424	-0.537951	1
H	-0.749955	0.937774	1.217469	1
Es	-0.480677	-1.764120	-0.099002	99
Es	1.586846	-0.486071	0.067612	99
Es	1.937231	0.807995	0.264938	99
Es	-2.165371	-2.468891	-0.140873	99
Es	0.289091	-0.512297	0.049614	99
Es	1.755529	0.179334	0.124695	99
Es	-0.619910	0.897199	0.882225	99
Es	0.853895	2.328536	0.376223	99
Es	2.471203	0.957072	-0.013203	99
Es	0.875710	1.925638	-0.768517	99
Es	-0.071263	0.154887	0.121566	99
Es	-0.099639	-1.135087	-0.021398	99
Es	-0.362812	0.834828	0.199188	99
Es	0.218335	1.303602	0.079237	99
Es	-1.816733	-1.825236	-0.065685	99
Es	-0.080890	-2.364004	-0.188646	99
Es	-1.133702	-1.819987	0.239420	99
Es	-0.902551	0.940677	-0.295833	99
Es	-1.153304	-1.732835	-0.402582	99
Es	1.468975	1.207400	0.104460	99
Es	0.973432	-0.479819	-0.236335	99
Es	1.945638	0.776732	0.552146	99
Es	1.843322	-0.751099	0.036067	99
Es	-2.240731	-1.236525	0.028913	99
Es	0.977422	-0.545033	0.335829	99
Es	0.843951	1.718622	-0.047249	99
41
Properties=species:S:1:pos:R:3:Z:I:1 energy=-302.9358906263365 field_type=dipole dipole="0.000000 0.000000 0.000000" charge=0
C	-1.816635	-1.825236	-0.065691	6
C	-0.480795	-1.764186	-0.099001	6
C	0.289135	-0.512276	0.049609	6
N	1.587245	-0.486576	0.067559	7
N	1.937455	0.808204	0.265689	7
C	0.843875	1.718724	-0.047281	6
C	-0.362855	0.834854	0.199199	6
H	-2.318895	-2.781766	-0.175981	1
H	-2.445265	-0.953376	0.075699	1
H	0.116705	-2.661066	-0.230871	1
H	2.811395	1.051904	-0.202131	1
H	0.891315	2.021784	-1.099271	1
H	0.848805	2.611814	0.582959	1
H	-1.151535	0.999424	-0.537951	1
H	-0.749955	0.937774	1.217469	1
Es	0.843954	1.718619	-0.047248	99
Es	-2.238428	-1.237712	0.028886	99
Es	-0.905856	0.938958	-0.295299	99
Es	0.876107	1.924813	-0.763388	99
Es	1.940876	0.769992	0.525183	99
Es	1.760694	0.177978	0.125732	99
Es	1.469503	1.210594	0.110660	99
Es	-1.816735	-1.825237	-0.065692	99
Es	-0.099206	-1.135068	-0.021457	99
Es	-0.480676	-1.764120	-0.098998	99
Es	0.218429	1.303328	0.078383	99
Es	1.838354	-0.750625	0.034852	99
Es	-0.617340	0.894643	0.879717	99
Es	-2.167622	-2.468633	-0.140957	99
Es	-0.072228	0.158503	0.123579	99
Es	0.972186	-0.477290	-0.235857	99
Es	-0.362813	0.834830	0.199195	99
Es	0.854621	2.327598	0.373206	99
Es	-1.153442	-1.732636	-0.403399	99
Es	0.289087	-0.512299	0.049627	99
Es	-1.133626	-1.820655	0.240696	99
Es	0.976920	-0.543983	0.336632	99
Es	2.479209	0.960226	0.005126	99
Es	1.937225	0.807985	0.264911	99
Es	-0.083024	-2.362205	-0.188893	99
Es	1.586827	-0.486082	0.067612	99
41
Properties=species:S:1:pos:R:3:Z:I:1 energy=-302.9358906263365 field_type=dipole dipole="0.000000 0.000000 0.000000" charge=0
C	-1.816635	-1.825236	-0.065691	6
C	-0.480795	-1.764186	-0.099001	6
C	0.289135	-0.512276	0.049609	6
N	1.587245	-0.486576	0.067559	7
N	1.937455	0.808204	0.265689	7
C	0.843875	1.718724	-0.047281	6
C	-0.362855	0.834854	0.199199	6
H	-2.318895	-2.781766	-0.175981	1
H	-2.445265	-0.953376	0.075699	1
H	0.116705	-2.661066	-0.230871	1
H	2.811395	1.051904	-0.202131	1
H	0.891315	2.021784	-1.099271	1
H	0.848805	2.611814	0.582959	1
H	-1.151535	0.999424	-0.537951	1
H	-0.749955	0.937774	1.217469	1
Es	1.586841	-0.486080	0.067613	99
Es	2.482517	0.961478	0.016614	99
Es	-2.236287	-1.238771	0.029075	99
Es	0.843951	1.718622	-0.047249	99
Es	1.937210	0.807950	0.264896	99
Es	-0.072954	0.161854	0.125259	99
Es	-0.098663	-1.135155	-0.021470	99
Es	0.854838	2.326576	0.370492	99
Es	0.875900	1.923460	-0.758206	99
Es	1.939892	0.765197	0.506131	99
Es	0.971474	-0.475318	-0.235322	99
Es	0.219020	1.302515	0.077334	99
Es	1.470507	1.213584	0.116788	99
Es	-1.133643	-1.821168	0.241356	99
Es	-0.908848	0.937587	-0.294165	99
Es	-2.169717	-2.468088	-0.140729	99
Es	0.289087	-0.512299	0.049628	99
Es	-0.480676	-1.764119	-0.099002	99
Es	-0.614694	0.893012	0.876943	99
Es	1.834725	-0.750039	0.033867	99
Es	-1.816735	-1.825237	-0.065691	99
Es	-1.153458	-1.732373	-0.404121	99
Es	1.764240	0.177303	0.125503	99
Es	0.976435	-0.543163	0.337028	99
Es	-0.085151	-2.360637	-0.188954	99
Es	-0.362812	0.834828	0.199189	99
41
Properties=species:S:1:pos:R:3:Z:I:1 energy=-302.9358906263365 field_type=dipole dipole="0.000000 0.000000 0.000000" charge=0
C	-1.816635	-1.825236	-0.065691	6
C	-0.480795	-1.764186	-0.099001	6
C	0.289135	-0.512276	0.049609	6
N	1.587245	-0.486576	0.067559	7
N	1.937455	0.808204	0.265689	7
C	0.843875	1.718724	-0.047281	6
C	-0.362855	0.834854	0.199199	6
H	-2.318895	-2.781766	-0.175981	1
H	-2.445265	-0.953376	0.075699	1
H	0.116705	-2.661066	-0.230871	1
H	2.811395	1.051904	-0.202131	1
H	0.891315	2.021784	-1.099271	1
H	0.848805	2.611814	0.582959	1
H	-1.151535	0.999424	-0.537951	1
H	-0.749955	0.937774	1.217469	1
Es	-0.480675	-1.764120	-0.098998	99
Es	0.854820	2.325317	0.368339	99
Es	-0.911931	0.936868	-0.291949	99
Es	0.843953	1.718619	-0.047248	99
Es	1.937263	0.808021	0.264982	99
Es	-2.234508	-1.239628	0.029250	99
Es	-1.133554	-1.821586	0.241759	99
Es	1.586835	-0.486108	0.067607	99
Es	-0.362813	0.834828	0.199190	99
Es	2.484132	0.961902	0.024264	99
Es	-0.073578	0.164896	0.126360	99
Es	1.939835	0.762161	0.490316	99
Es	1.768695	0.175693	0.126189	99
Es	-2.171481	-2.467377	-0.140560	99
Es	0.875559	1.922054	-0.753305	99
Es	-1.816738	-1.825240	-0.065691	99
Es	-0.611725	0.891586	0.873842	99
Es	0.289086	-0.512301	0.049631	99
Es	-0.086961	-2.359322	-0.189200	99
Es	1.830562	-0.748910	0.033065	99
Es	-0.098221	-1.135257	-0.021526	99
Es	0.971294	-0.473569	-0.234619	99
Es	1.471153	1.216492	0.122045	99
Es	-1.153537	-1.732192	-0.404330	99
Es	0.219793	1.301315	0.076267	99
Es	0.975740	-0.542623	0.337134	99
41
Properties=species:S:1:pos:R:3:Z:I:1 energy=-302.9358906263365 field_type=dipole dipole="0.000000 0.000000 0.000000" charge=0
C	-1.816635	-1.825236	-0.065691	6
C	-0.480795	-1.764186	-0.099001	6
C	0.289135	-0.512276	0.049609	6
N	1.587245	-0.486576	0.067559	7
N	1.937455	0.808204	0.265689	7
C	0.843875	1.718724	-0.047281	6
C	-0.362855	0.834854	0.199199	6
H	-2.318895	-2.781766	-0.175981	1
H	-2.445265	-0.953376	0.075699	1
H	0.116705	-2.661066	-0.230871	1
H	2.811395	1.051904	-0.202131	1
H	0.891315	2.021784	-1.099271	1
H	0.848805	2.611814	0.582959	1
H	-1.151535	0.999424	-0.537951	1
H	-0.749955	0.937774	1.217469	1
Es	0.843953	1.718619	-0.047248	99
Es	1.471051	1.218871	0.126738	99
Es	1.773393	0.174059	0.127088	99
Es	-2.232764	-1.240509	0.029263	99
Es	-0.073939	0.167655	0.127251	99
Es	-0.088518	-2.358239	-0.189214	99
Es	0.970057	-0.472550	-0.234441	99
Es	-0.480676	-1.764121	-0.098995	99
Es	-1.133558	-1.821695	0.241889	99
Es	1.937180	0.807854	0.264906	99
Es	-1.816736	-1.825237	-0.065690	99
Es	-2.173215	-2.466583	-0.140186	99
Es	1.940094	0.760331	0.477507	99
Es	-0.608889	0.890330	0.870324	99
Es	0.854809	2.324402	0.366522	99
Es	0.289086	-0.512300	0.049631	99
Es	2.484958	0.962055	0.029187	99
Es	-1.153545	-1.732096	-0.404485	99
Es	1.586826	-0.486083	0.067610	99
Es	-0.362813	0.834829	0.199190	99
Es	0.220541	1.300108	0.075421	99
Es	1.826817	-0.747754	0.032986	99
Es	-0.914790	0.936251	-0.289136	99
Es	0.875266	1.920363	-0.748718	99
Es	-0.097857	-1.135377	-0.021442	99
Es	0.976270	-0.541666	0.336846	99
41
Properties=species:S:1:pos:R:3:Z:I:1 energy=-302.9358906263365 field_type=dipole dipole="0.000000 0.000000 0.000000" charge=0
C	-1.816635	-1.825236	-0.065691	6
C	-0.480795	-1.764186	-0.099001	6
C	0.289135	-0.512276	0.049609	6
N	1.587245	-0.486576	0.067559	7
N	1.937455	0.808204	0.265689	7
C	0.843875	1.718724	-0.047281	6
C	-0.362855	0.834854	0.199199	6
H	-2.318895	-2.781766	-0.175981	1
H	-2.445265	-0.953376	0.075699	1
H	0.116705	-2.661066	-0.230871	1
H	2.811395	1.051904	-0.202131	1
H	0.891315	2.021784	-1.099271	1
H	0.848805	2.611814	0.582959	1
H	-1.151535	0.999424	-0.537951	1
H	-0.749955	0.937774	1.217469	1
Es	1.940133	0.759110	0.470078	99
Es	-1.816736	-1.825238	-0.065687	99
Es	-0.917530	0.936315	-0.285524	99
Es	-0.074380	0.169634	0.127494	99
Es	-2.231739	-1.241028	0.029367	99
Es	-0.089736	-2.357288	-0.189247	99
Es	0.854837	2.323588	0.364967	99
Es	-0.480675	-1.764120	-0.098999	99
Es	1.823224	-0.746199	0.032679	99
Es	0.221169	1.298921	0.074799	99
Es	0.975164	-0.541403	0.336868	99
Es	1.937105	0.807663	0.264968	99
Es	-2.174241	-2.466025	-0.139938	99
Es	0.874988	1.918581	-0.744344	99
Es	-1.153460	-1.731884	-0.404556	99
Es	-0.606147	0.889330	0.866362	99
Es	2.485468	0.961973	0.032591	99
Es	1.586834	-0.486068	0.067614	99
Es	1.471600	1.220807	0.128524	99
Es	-0.097464	-1.135566	-0.021526	99
Es	0.843951	1.718623	-0.047252	99
Es	-0.362813	0.834828	0.199190	99
Es	0.289087	-0.512300	0.049633	99
Es	-1.133646	-1.821990	0.241887	99
Es	1.777289	0.172627	0.126628	99
Es	0.970714	-0.471374	-0.233768	99
41
Properties=species:S:1:pos:R:3:Z:I:1 energy=-302.9358906263365 field_type=dipole dipole="0.000000 0.000000 0.000000" charge=0
C	-1.816635	-1.825236	-0.065691	6
C	-0.480795	-1.764186	-0.099001	6
C	0.289135	-0.512276	0.049609	6
N	1.587245	-0.486576	0.067559	7
N	1.937455	0.808204	0.265689	7
C	0.843875	1.718724	-0.047281	6
C	-0.362855	0.834854	0.199199	6
H	-2.318895	-2.781766	-0.175981	1
H	-2.445265	-0.953376	0.075699	1
H	0.116705	-2.661066	-0.230871	1
H	2.811395	1.051904	-0.202131	1
H	0.891315	2.021784	-1.099271	1
H	0.848805	2.611814	0.582959	1
H	-1.151535	0.999424	-0.537951	1
H	-0.749955	0.937774	1.217469	1
Es	-0.090583	-2.356621	-0.189202	99
Es	-1.133516	-1.821899	0.241924	99
Es	-0.074673	0.171481	0.128036	99
Es	-1.153585	-1.732039	-0.404531	99
Es	-0.603683	0.888578	0.862233	99
Es	1.780698	0.171296	0.126932	99
Es	-1.816738	-1.825237	-0.065688	99
Es	0.970525	-0.470688	-0.233514	99
Es	-0.362812	0.834828	0.199190	99
Es	0.874874	1.917115	-0.740961	99
Es	-0.919964	0.936144	-0.281658	99
Es	0.843953	1.718619	-0.047248	99
Es	-0.480675	-1.764120	-0.099001	99
Es	1.820473	-0.744780	0.032695	99
Es	1.940246	0.758623	0.463354	99
Es	-2.230484	-1.241758	0.029349	99
Es	0.854844	2.322754	0.363701	99
Es	1.937018	0.807295	0.265432	99
Es	0.974994	-0.541019	0.336568	99
Es	2.485742	0.961902	0.034636	99
Es	-0.097252	-1.135612	-0.021601	99
Es	0.221640	1.297940	0.074348	99
Es	1.586839	-0.486072	0.067613	99
Es	1.471527	1.222341	0.130320	99
Es	0.289087	-0.512299	0.049631	99
Es	-2.175497	-2.465255	-0.139753	99
41
Properties=species:S:1:pos:R:3:Z:I:1 energy=-302.9358906263365 field_type=dipole dipole="0.000000 0.000000 0.000000" charge=0
C	-1.816635	-1.825236	-0.065691	6
C	-0.480795	-1.764186	-0.099001	6
C	0.289135	-0.512276	0.049609	6
N	1.587245	-0.486576	0.067559	7
N	1.937455	0.808204	0.265689	7
C	0.843875	1.718724	-0.047281	6
C	-0.362855	0.834854	0.199199	6
H	-2.318895	-2.781766	-0.175981	1
H	-2.445265	-0.953376	0.075699	1
H	0.116705	-2.661066	-0.230871	1
H	2.811395	1.051904	-0.202131	1
H	0.891315	2.021784	-1.099271	1
H	0.848805	2.611814	0.582959	1
H	-1.151535	0.999424	-0.537951	1
H	-0.749955	0.937774	1.217469	1
Es	-0.096976	-1.135777	-0.021680	99
Es	1.784907	0.169587	0.126929	99
Es	-2.229885	-1.242085	0.029336	99
Es	0.974457	-0.540693	0.336351	99
Es	0.970784	-0.470078	-0.233073	99
Es	0.854781	2.322081	0.362983	99
Es	-1.153567	-1.732040	-0.404624	99
Es	0.289086	-0.512301	0.049645	99
Es	1.939864	0.757312	0.459681	99
Es	0.221942	1.297242	0.073827	99
Es	-0.074774	0.172375	0.128107	99
Es	1.586839	-0.486071	0.067614	99
Es	-0.480675	-1.764119	-0.099000	99
Es	-2.176113	-2.464823	-0.139575	99
Es	-1.133531	-1.821961	0.241955	99
Es	2.485876	0.961909	0.035787	99
Es	-0.091345	-2.355986	-0.189127	99
Es	0.874868	1.915671	-0.737325	99
Es	-0.921916	0.936459	-0.278010	99
Es	1.817169	-0.742830	0.032900	99
Es	0.843951	1.718621	-0.047248	99
Es	1.937402	0.808116	0.265665	99
Es	-1.816736	-1.825237	-0.065688	99
Es	1.471139	1.223367	0.129806	99
Es	-0.362812	0.834828	0.199190	99
Es	-0.601736	0.887951	0.858382	99
41
Properties=species:S:1:pos:R:3:Z:I:1 energy=-302.9358906263365 field_type=dipole dipole="0.000000 0.000000 0.000000" charge=0
C	-1.816635	-1.825236	-0.065691	6
C	-0.480795	-1.764186	-0.099001	6
C	0.289135	-0.512276	0.049609	6
N	1.587245	-0.486576	0.067559	7
N	1.937455	0.808204	0.265689	7
C	0.843875	1.718724	-0.047281	6
C	-0.362855	0.834854	0.199199	6
H	-2.318895	-2.781766	-0.175981	1
H	-2.445265	-0.953376	0.075699	1
H	0.116705	-2.661066	-0.230871	1
H	2.811395	1.051904	-0.202131	1
H	0.891315	2.021784	-1.099271	1
H	0.848805	2.611814	0.582959	1
H	-1.151535	0.999424	-0.537951	1
H	-0.749955	0.937774	1.217469	1
Es	-2.228961	-1.242680	0.029280	99
Es	-2.177038	-2.464198	-0.139461	99
Es	-0.092009	-2.355409	-0.189077	99
Es	-0.480675	-1.764119	-0.098998	99
Es	0.854730	2.321490	0.362215	99
Es	0.970857	-0.469598	-0.232861	99
Es	-0.599961	0.887386	0.854574	99
Es	0.974118	-0.540418	0.336076	99
Es	-1.133566	-1.822069	0.241956	99
Es	1.815660	-0.741824	0.032925	99
Es	0.222331	1.296402	0.073596	99
Es	-0.075076	0.173641	0.128322	99
Es	1.937122	0.807634	0.264958	99
Es	2.486051	0.961813	0.037253	99
Es	0.874914	1.914598	-0.735136	99
Es	1.470768	1.224091	0.130762	99
Es	-1.153529	-1.731971	-0.404577	99
Es	1.940053	0.757318	0.456397	99
Es	1.787144	0.169156	0.127069	99
Es	-0.096603	-1.136052	-0.021727	99
Es	0.289087	-0.512300	0.049634	99
Es	0.843956	1.718616	-0.047254	99
Es	-1.816736	-1.825236	-0.065691	99
Es	-0.923656	0.936502	-0.274227	99
Es	-0.362810	0.834819	0.199190	99
Es	1.586826	-0.486073	0.067611	99
41
Properties=species:S:1:pos:R:3:Z:I:1 energy=-302.9358906263365 field_type=dipole dipole="0.000000 0.000000 0.000000" charge=0
C	-1.816635	-1.825236	-0.065691	6
C	-0.480795	-1.764186	-0.099001	6
C	0.289135	-0.512276	0.049609	6
N	1.587245	-0.486576	0.067559	7
N	1.937455	0.808204	0.265689	7
C	0.843875	1.718724	-0.047281	6
C	-0.362855	0.834854	0.199199	6
H	-2.318895	-2.781766	-0.175981	1
H	-2.445265	-0.953376	0.075699	1
H	0.116705	-2.661066	-0.230871	1
H	2.811395	1.051904	-0.202131	1
H	0.891315	2.021784	-1.099271	1
H	0.848805	2.611814	0.582959	1
H	-1.151535	0.999424	-0.537951	1
H	-0.749955	0.937774	1.217469	1
Es	-0.925079	0.936745	-0.270858	99
Es	-0.598532	0.886823	0.851082	99
Es	1.789878	0.167467	0.126321	99
Es	-1.153550	-1.731913	-0.404653	99
Es	-0.075013	0.174303	0.128277	99
Es	-2.177162	-2.464046	-0.139429	99
Es	-0.096670	-1.135931	-0.021685	99
Es	-0.362811	0.834827	0.199191	99
Es	1.940264	0.757958	0.452390	99
Es	0.971248	-0.469298	-0.232468	99
Es	0.854716	2.320914	0.361618	99
Es	0.289087	-0.512300	0.049635	99
Es	-1.133552	-1.822090	0.241974	99
Es	1.470852	1.225010	0.131833	99
Es	1.813092	-0.739936	0.033309	99
Es	0.843951	1.718624	-0.047253	99
Es	-2.228850	-1.242744	0.029368	99
Es	-0.092400	-2.355112	-0.189058	99
Es	-0.480675	-1.764119	-0.099000	99
Es	0.973568	-0.540228	0.335664	99
Es	1.936887	0.806463	0.266844	99
Es	0.222520	1.295926	0.073452	99
Es	0.875004	1.913808	-0.733437	99
Es	-1.816736	-1.825238	-0.065691	99
Es	1.586826	-0.486066	0.067613	99
Es	2.486134	0.961672	0.037768	99
41
Properties=species:S:1:pos:R:3:Z:I:1 energy=-302.9358906263365 field_type=dipole dipole="0.000000 0.000000 0.000000" charge=0
C	-1.816635	-1.825236	-0.065691	6
C	-0.480795	-1.764186	-0.099001	6
C	0.289135	-0.512276	0.049609	6
N	1.587245	-0.486576	0.067559	7
N	1.937455	0.808204	0.265689	7
C	0.843875	1.718724	-0.047281	6
C	-0.362855	0.834854	0.199199	6
H	-2.318895	-2.781766	-0.175981	1
H	-2.445265	-0.953376	0.075699	1
H	0.116705	-2.661066	-0.230871	1
H	2.811395	1.051904	-0.202131	1
H	0.891315	2.021784	-1.099271	1
H	0.848805	2.611814	0.582959	1
H	-1.151535	0.999424	-0.537951	1
H	-0.749955	0.937774	1.217469	1
Es	-0.480675	-1.764123	-0.098998	99
Es	-1.153726	-1.732346	-0.404325	99
Es	-0.075301	0.174996	0.128455	99
Es	-0.597516	0.886617	0.848247	99
Es	0.289087	-0.512299	0.049635	99
Es	-1.816736	-1.825237	-0.065689	99
Es	0.843949	1.718628	-0.047253	99
Es	1.470572	1.225665	0.131118	99
Es	0.875057	1.912852	-0.731272	99
Es	0.970708	-0.468993	-0.232618	99
Es	1.940075	0.757063	0.451579	99
Es	0.222740	1.295455	0.073323	99
Es	1.792028	0.166210	0.126806	99
Es	-1.133355	-1.821765	0.241817	99
Es	-0.926099	0.936884	-0.268155	99
Es	2.486202	0.961638	0.038414	99
Es	-2.228011	-1.243289	0.029145	99
Es	-0.096240	-1.136333	-0.021809	99
Es	-2.178022	-2.463403	-0.139292	99
Es	1.811459	-0.738843	0.033535	99
Es	-0.092863	-2.354664	-0.188984	99
Es	0.973913	-0.539758	0.335772	99
Es	0.854691	2.320457	0.361252	99
Es	1.937042	0.807344	0.265298	99
Es	1.586832	-0.486067	0.067613	99
Es	-0.362812	0.834828	0.199190	99
41
Properties=species:S:1:pos:R:3:Z:I:1 energy=-302.9358906263365 field_type=dipole dipole="0.000000 0.000000 0.000000" charge=0
C	-1.816635	-1.825236	-0.065691	6
C	-0.480795	-1.764186	-0.099001	6
C	0.289135	-0.512276	0.049609	6
N	1.587245	-0.486576	0.067559	7
N	1.937455	0.808204	0.265689	7
C	0.843875	1.718724	-0.047281	6
C	-0.362855	0.834854	0.199199	6
H	-2.318895	-2.781766	-0.175981	1
H	-2.445265	-0.953376	0.075699	1
H	0.116705	-2.661066	-0.230871	1
H	2.811395	1.051904	-0.202131	1
H	0.891315	2.021784	-1.099271	1
H	0.848805	2.611814	0.582959	1
H	-1.151535	0.999424	-0.537951	1
H	-0.749955	0.937774	1.217469	1
Es	0.289087	-0.512297	0.049633	99
Es	-0.480675	-1.764119	-0.098998	99
Es	-0.362812	0.834828	0.199191	99
Es	0.854680	2.320061	0.360752	99
Es	-0.096232	-1.136324	-0.021857	99
Es	-2.227893	-1.243374	0.029202	99
Es	1.936741	0.805207	0.269551	99
Es	2.486296	0.961601	0.039447	99
Es	1.940296	0.758825	0.445187	99
Es	0.222900	1.295018	0.073327	99
Es	-0.926977	0.936906	-0.265679	99
Es	1.470534	1.226104	0.131961	99
Es	-0.596629	0.886396	0.845714	99
Es	-0.093156	-2.354429	-0.188964	99
Es	-1.153531	-1.731948	-0.404621	99
Es	0.875126	1.912316	-0.730376	99
Es	-1.816736	-1.825237	-0.065688	99
Es	1.793891	0.165150	0.126353	99
Es	1.586855	-0.486068	0.067615	99
Es	-1.133562	-1.822098	0.242121	99
Es	-0.075275	0.175456	0.128531	99
Es	0.843952	1.718620	-0.047248	99
Es	0.970976	-0.468699	-0.232271	99
Es	-2.178144	-2.463279	-0.139286	99
Es	0.973497	-0.539597	0.335532	99
Es	1.809788	-0.737500	0.033681	99
41
Properties=species:S:1:pos:R:3:Z:I:1 energy=-302.9358906263365 field_type=dipole dipole="0.000000 0.000000 0.000000" charge=0
C	-1.816635	-1.825236	-0.065691	6
C	-0.480795	-1.764186	-0.099001	6
C	0.289135	-0.512276	0.049609	6
N	1.587245	-0.486576	0.067559	7
N	1.937455	0.808204	0.265689	7
C	0.843875	1.718724	-0.047281	6
C	-0.362855	0.834854	0.199199	6
H	-2.318895	-2.781766	-0.175981	1
H	-2.445265	-0.953376	0.075699	1
H	0.116705	-2.661066	-0.230871	1
H	2.811395	1.051904	-0.202131	1
H	0.891315	2.021784	-1.099271	1
H	0.848805	2.611814	0.582959	1
H	-1.151535	0.999424	-0.537951	1
H	-0.749955	0.937774	1.217469	1
Es	0.973996	-0.539413	0.335836	99
Es	-0.096077	-1.136448	-0.021830	99
Es	0.223040	1.294597	0.073437	99
Es	1.939015	0.799082	0.306236	99
Es	-1.133403	-1.821884	0.242090	99
Es	-0.093509	-2.354021	-0.188924	99
Es	0.854737	2.319831	0.360486	99
Es	-2.178297	-2.463137	-0.139155	99
Es	1.937978	0.764998	0.406430	99
Es	-0.926887	0.936923	-0.266008	99
Es	-1.153689	-1.732185	-0.404626	99
Es	-0.075304	0.175776	0.128514	99
Es	-0.362812	0.834828	0.199192	99
Es	-0.480675	-1.764123	-0.099001	99
Es	0.970388	-0.468537	-0.232724	99
Es	0.843951	1.718623	-0.047250	99
Es	-2.227739	-1.243531	0.029214	99
Es	1.586818	-0.486076	0.067610	99
Es	-0.596717	0.886341	0.846121	99
Es	2.486360	0.961566	0.040100	99
Es	-1.816736	-1.825237	-0.065688	99
Es	1.808287	-0.736028	0.033934	99
Es	0.875121	1.912282	-0.730459	99
Es	1.470012	1.225407	0.132746	99
Es	0.289087	-0.512301	0.049634	99
Es	1.796052	0.164187	0.126893	99
41
Properties=species:S:1:pos:R:3:Z:I:1 energy=-302.9358906263365 field_type=dipole dipole="0.000000 0.000000 0.000000" charge=0
C	-1.816635	-1.825236	-0.065691	6
C	-0.480795	-1.764186	-0.099001	6
C	0.289135	-0.512276	0.049609	6
N	1.587245	-0.486576	0.067559	7
N	1.937455	0.808204	0.265689	7
C	0.843875	1.718724	-0.047281	6
C	-0.362855	0.834854	0.199199	6
H	-2.318895	-2.781766	-0.175981	1
H	-2.445265	-0.953376	0.075699	1
H	0.116705	-2.661066	-0.230871	1
H	2.811395	1.051904	-0.202131	1
H	0.891315	2.021784	-1.099271	1
H	0.848805	2.611814	0.582959	1
H	-1.151535	0.999424	-0.537951	1
H	-0.749955	0.937774	1.217469	1
Es	0.223164	1.294302	0.073112	99
Es	-0.362812	0.834827	0.199190	99
Es	-0.928318	0.937160	-0.261628	99
Es	-2.227538	-1.243618	0.029199	99
Es	0.843951	1.718622	-0.047249	99
Es	-0.480675	-1.764120	-0.099000	99
Es	1.807823	-0.735727	0.034108	99
Es	-0.096076	-1.136400	-0.021873	99
Es	-1.153546	-1.731958	-0.404725	99
Es	-0.075216	0.176066	0.128570	99
Es	1.586833	-0.486122	0.067603	99
Es	0.875274	1.911057	-0.727902	99
Es	-0.595292	0.885993	0.841504	99
Es	0.973382	-0.539196	0.335372	99
Es	-1.133559	-1.822055	0.242032	99
Es	0.970886	-0.468426	-0.232230	99
Es	-0.093815	-2.353806	-0.188844	99
Es	1.940340	0.760160	0.439351	99
Es	2.486370	0.961490	0.039990	99
Es	0.289087	-0.512300	0.049637	99
Es	1.470149	1.226750	0.131681	99
Es	0.854703	2.319492	0.360022	99
Es	1.936643	0.803743	0.273231	99
Es	-2.178501	-2.462999	-0.139116	99
Es	-1.816735	-1.825238	-0.065685	99
Es	1.796476	0.163821	0.126460	99
41
Properties=species:S:1:pos:R:3:Z:I:1 energy=-302.9358906263365 field_type=dipole dipole="0.000000 0.000000 0.000000" charge=0
C	-1.816635	-1.825236	-0.065691	6
C	-0.480795	-1.764186	-0.099001	6
C	0.289135	-0.512276	0.049609	6
N	1.587245	-0.486576	0.067559	7
N	1.937455	0.808204	0.265689	7
C	0.843875	1.718724	-0.047281	6
C	-0.362855	0.834854	0.199199	6
H	-2.318895	-2.781766	-0.175981	1
H	-2.445265	-0.953376	0.075699	1
H	0.116705	-2.661066	-0.230871	1
H	2.811395	1.051904	-0.202131	1
H	0.891315	2.021784	-1.099271	1
H	0.848805	2.611814	0.582959	1
H	-1.151535	0.999424	-0.537951	1
H	-0.749955	0.937774	1.217469	1
Es	2.486391	0.961486	0.040258	99
Es	-1.153571	-1.731943	-0.404602	99
Es	1.586827	-0.486062	0.067613	99
Es	1.806273	-0.734330	0.034247	99
Es	-0.929109	0.937195	-0.258908	99
Es	1.937601	0.807965	0.267705	99
Es	0.973020	-0.539132	0.334928	99
Es	-0.075451	0.176770	0.128681	99
Es	1.939391	0.755672	0.444950	99
Es	0.289087	-0.512299	0.049632	99
Es	-2.227336	-1.243709	0.029203	99
Es	-0.096078	-1.136421	-0.021817	99
Es	0.843947	1.718641	-0.047280	99
Es	0.854798	2.319805	0.359870	99
Es	-0.093764	-2.353899	-0.188926	99
Es	-0.362816	0.834826	0.199193	99
Es	-1.816736	-1.825237	-0.065687	99
Es	0.875356	1.910352	-0.726670	99
Es	0.223302	1.294005	0.072944	99
Es	1.798560	0.163212	0.126082	99
Es	-1.133524	-1.822113	0.242010	99
Es	-2.178717	-2.462805	-0.139192	99
Es	-0.480675	-1.764119	-0.099001	99
Es	0.971132	-0.468205	-0.231987	99
Es	-0.594476	0.885690	0.838771	99
Es	1.469565	1.226176	0.130794	99
41
Properties=species:S:1:pos:R:3:Z:I:1 energy=-302.9358906263365 field_type=dipole dipole="0.000000 0.000000 0.000000" charge=0
C	-1.816635	-1.825236	-0.065691	6
C	-0.480795	-1.764186	-0.099001	6
C	0.289135	-0.512276	0.049609	6
N	1.587245	-0.486576	0.067559	7
N	1.937455	0.808204	0.265689	7
C	0.843875	1.718724	-0.047281	6
C	-0.362855	0.834854	0.199199	6
H	-2.318895	-2.781766	-0.175981	1
H	-2.445265	-0.953376	0.075699	1
H	0.116705	-2.661066	-0.230871	1
H	2.811395	1.051904	-0.202131	1
H	0.891315	2.021784	-1.099271	1
H	0.848805	2.611814	0.582959	1
H	-1.151535	0.999424	-0.537951	1
H	-0.749955	0.937774	1.217469	1
Es	-0.362812	0.834827	0.199190	99
Es	-1.153573	-1.731957	-0.404679	99
Es	-0.094114	-2.353505	-0.188841	99
Es	1.805692	-0.733765	0.034380	99
Es	-0.095958	-1.136523	-0.021814	99
Es	0.843955	1.718617	-0.047249	99
Es	0.289088	-0.512300	0.049639	99
Es	-0.480675	-1.764122	-0.099000	99
Es	-1.816737	-1.825237	-0.065689	99
Es	-1.133523	-1.822131	0.242009	99
Es	-0.075346	0.176775	0.128628	99
Es	1.469611	1.226501	0.131903	99
Es	-2.227225	-1.243781	0.029193	99
Es	-2.178829	-2.462718	-0.139152	99
Es	1.586818	-0.486063	0.067613	99
Es	0.972453	-0.538957	0.334568	99
Es	0.971621	-0.468052	-0.231504	99
Es	0.223379	1.293749	0.072824	99
Es	0.875421	1.910202	-0.726259	99
Es	1.936793	0.805572	0.268684	99
Es	-0.594070	0.885604	0.837298	99
Es	0.854723	2.319379	0.359726	99
Es	1.940111	0.758065	0.441700	99
Es	1.799278	0.162577	0.126297	99
Es	2.486446	0.961435	0.040850	99
Es	-0.929527	0.937322	-0.257506	99
41
Properties=species:S:1:pos:R:3:Z:I:1 energy=-302.9358906263365 field_type=dipole dipole="0.000000 0.000000 0.000000" charge=0
C	-1.816635	-1.825236	-0.065691	6
C	-0.480795	-1.764186	-0.099001	6
C	0.289135	-0.512276	0.049609	6
N	1.587245	-0.486576	0.067559	7
N	1.937455	0.808204	0.265689	7
C	0.843875	1.718724	-0.047281	6
C	-0.362855	0.834854	0.199199	6
H	-2.318895	-2.781766	-0.175981	1
H	-2.445265	-0.953376	0.075699	1
H	0.116705	-2.661066	-0.230871	1
H	2.811395	1.051904	-0.202131	1
H	0.891315	2.021784	-1.099271	1
H	0.848805	2.611814	0.582959	1
H	-1.151535	0.999424	-0.537951	1
H	-0.749955	0.937774	1.217469	1
Es	-2.226806	-1.244131	0.029097	99
Es	-0.362813	0.834828	0.199190	99
Es	1.800355	0.161572	0.125903	99
Es	-0.075428	0.177063	0.128564	99
Es	-0.095955	-1.136506	-0.021812	99
Es	-0.929468	0.937348	-0.257737	99
Es	0.289087	-0.512299	0.049634	99
Es	-2.179254	-2.462355	-0.138959	99
Es	1.804602	-0.732729	0.034619	99
Es	-1.133631	-1.822134	0.242093	99
Es	-1.153468	-1.731922	-0.404757	99
Es	0.971004	-0.468065	-0.232061	99
Es	-0.480675	-1.764118	-0.099001	99
Es	0.843947	1.718647	-0.047301	99
Es	2.486473	0.961341	0.040904	99
Es	-1.816736	-1.825236	-0.065689	99
Es	0.854728	2.318913	0.359373	99
Es	1.586812	-0.486051	0.067614	99
Es	1.936485	0.796434	0.294426	99
Es	-0.594133	0.885610	0.837595	99
Es	0.223461	1.293544	0.073024	99
Es	0.973062	-0.538842	0.335089	99
Es	1.940404	0.766982	0.415325	99
Es	-0.094181	-2.353469	-0.188762	99
Es	1.469753	1.226740	0.133063	99
Es	0.875373	1.910355	-0.726625	99
41
Properties=species:S:1:pos:R:3:Z:I:1 energy=-302.9358906263365 field_type=dipole dipole="0.000000 0.000000 0.000000" charge=0
C	-1.816635	-1.825236	-0.065691	6
C	-0.480795	-1.764186	-0.099001	6
C	0.289135	-0.512276	0.049609	6
N	1.587245	-0.486576	0.067559	7
N	1.937455	0.808204	0.265689	7
C	0.843875	1.718724	-0.047281	6
C	-0.362855	0.834854	0.199199	6
H	-2.318895	-2.781766	-0.175981	1
H	-2.445265	-0.953376	0.075699	1
H	0.116705	-2.661066	-0.230871	1
H	2.811395	1.051904	-0.202131	1
H	0.891315	2.021784	-1.099271	1
H	0.848805	2.611814	0.582959	1
H	-1.151535	0.999424	-0.537951	1
H	-0.749955	0.937774	1.217469	1
Es	-0.362811	0.834823	0.199190	99
Es	1.939889	0.755682	0.446647	99
Es	0.843953	1.718620	-0.047247	99
Es	-1.153568	-1.732007	-0.404564	99
Es	-0.094245	-2.353475	-0.188820	99
Es	1.586819	-0.486066	0.067612	99
Es	0.875556	1.909010	-0.724137	99
Es	-0.075452	0.177286	0.128655	99
Es	1.937086	0.807463	0.265100	99
Es	-0.593077	0.885237	0.833314	99
Es	-2.178943	-2.462612	-0.139104	99
Es	1.469272	1.226887	0.130494	99
Es	-0.930520	0.937470	-0.253784	99
Es	0.971358	-0.467906	-0.231581	99
Es	-1.816736	-1.825237	-0.065690	99
Es	1.801527	0.161570	0.125276	99
Es	0.854813	2.319199	0.359067	99
Es	0.972573	-0.538687	0.334518	99
Es	-0.480676	-1.764119	-0.099001	99
Es	2.486441	0.961356	0.040423	99
Es	-2.227124	-1.243795	0.029178	99
Es	0.223451	1.293638	0.072870	99
Es	-0.095914	-1.136537	-0.021902	99
Es	1.803766	-0.731929	0.034710	99
Es	-1.133529	-1.822050	0.241952	99
Es	0.289087	-0.512300	0.049633	99
