45
Properties=species:S:1:pos:R:3:Z:I:1 energy=-288.0948134018891 field_type=dipole dipole="0.000000 0.000000 0.000000" charge=0
C	-2.962938	0.232839	0.425264	6
C	-1.478488	0.076739	0.385674	6
C	-0.771298	-0.085581	-0.744256	6
C	0.702842	-0.237821	-0.767606	6
C	1.555252	0.887069	-0.143806	6
C	2.413322	-0.268631	0.402604	6
N	1.218272	-1.135661	0.294064	7
H	-3.224628	1.191119	0.884204	1
H	-3.405958	-0.568401	1.024564	1
H	-3.409858	0.199099	-0.573416	1
H	-0.970288	0.090239	1.348064	1
H	-1.276638	-0.105231	-1.705756	1
H	1.053332	-0.525081	-1.768966	1
H	1.070722	1.484749	0.637314	1
H	2.055282	1.558149	-0.847256	1
H	3.236972	-0.567801	-0.256176	1
H	2.795092	-0.137271	1.418254	1
H	1.399012	-2.088521	-0.012766	1
Es	1.782681	-0.820283	0.355199	99
Es	2.054593	0.372597	0.151286	99
Es	-1.114980	-0.096921	-1.405397	99
Es	1.018732	-1.107703	0.585391	99
Es	-0.771241	-0.085583	-0.744350	99
Es	-1.150130	-0.331884	-0.175326	99
Es	-3.255202	-0.309534	0.832414	99
Es	2.413194	-0.268697	0.402573	99
Es	1.219882	1.281570	0.388126	99
Es	-3.263112	0.209496	-0.256336	99
Es	0.950133	-0.433355	-1.459754	99
Es	-2.962900	0.232833	0.425266	99
Es	-0.042698	-0.161526	-0.764270	99
Es	-3.132216	0.881214	0.737714	99
Es	1.897258	1.350359	-0.628183	99
Es	1.555270	0.887012	-0.143817	99
Es	2.978657	-0.473439	-0.060222	99
Es	0.968145	-0.800544	-0.199703	99
Es	0.702885	-0.237881	-0.767493	99
Es	1.340158	-1.711605	0.091332	99
Es	-1.084193	0.320958	-0.219329	99
Es	1.218623	-1.135647	0.293593	99
Es	-1.478583	0.076753	0.385760	99
Es	-2.222721	0.155234	0.399269	99
Es	1.073603	0.392503	-0.503033	99
Es	-1.143540	0.092515	1.040147	99
Es	2.684268	-0.182207	1.102625	99
45
Properties=species:S:1:pos:R:3:Z:I:1 energy=-288.0948134018891 field_type=dipole dipole="0.000000 0.000000 0.000000" charge=0
C	-2.962938	0.232839	0.425264	6
C	-1.478488	0.076739	0.385674	6
C	-0.771298	-0.085581	-0.744256	6
C	0.702842	-0.237821	-0.767606	6
C	1.555252	0.887069	-0.143806	6
C	2.413322	-0.268631	0.402604	6
N	1.218272	-1.135661	0.294064	7
H	-3.224628	1.191119	0.884204	1
H	-3.405958	-0.568401	1.024564	1
H	-3.409858	0.199099	-0.573416	1
H	-0.970288	0.090239	1.348064	1
H	-1.276638	-0.105231	-1.705756	1
H	1.053332	-0.525081	-1.768966	1
H	1.070722	1.484749	0.637314	1
H	2.055282	1.558149	-0.847256	1
H	3.236972	-0.567801	-0.256176	1
H	2.795092	-0.137271	1.418254	1
H	1.399012	-2.088521	-0.012766	1
Es	-1.084105	0.322179	-0.219290	99
Es	1.011680	-1.108016	0.595011	99
Es	-1.143848	0.092696	1.039994	99
Es	-0.771241	-0.085592	-0.744350	99
Es	-2.962904	0.232838	0.425270	99
Es	2.683416	-0.181563	1.102966	99
Es	0.950964	-0.433395	-1.461564	99
Es	0.702884	-0.237882	-0.767493	99
Es	1.780808	-0.821630	0.350529	99
Es	-0.042575	-0.161251	-0.763555	99
Es	-3.262985	0.209626	-0.256275	99
Es	1.219060	1.282048	0.390022	99
Es	-3.132199	0.881320	0.738034	99
Es	2.413194	-0.268698	0.402573	99
Es	-2.222617	0.155173	0.399471	99
Es	-3.255101	-0.309713	0.832254	99
Es	0.973647	-0.801622	-0.200444	99
Es	-1.150131	-0.332853	-0.174918	99
Es	-1.114770	-0.097209	-1.405289	99
Es	1.555269	0.887012	-0.143817	99
Es	1.343177	-1.707154	0.087086	99
Es	1.218628	-1.135654	0.293580	99
Es	2.052893	0.371265	0.150700	99
Es	1.074022	0.391189	-0.502049	99
Es	1.898151	1.349652	-0.629097	99
Es	2.979830	-0.473284	-0.061623	99
Es	-1.478584	0.076754	0.385761	99
45
Properties=species:S:1:pos:R:3:Z:I:1 energy=-288.0948134018891 field_type=dipole dipole="0.000000 0.000000 0.000000" charge=0
C	-2.962938	0.232839	0.425264	6
C	-1.478488	0.076739	0.385674	6
C	-0.771298	-0.085581	-0.744256	6
C	0.702842	-0.237821	-0.767606	6
C	1.555252	0.887069	-0.143806	6
C	2.413322	-0.268631	0.402604	6
N	1.218272	-1.135661	0.294064	7
H	-3.224628	1.191119	0.884204	1
H	-3.405958	-0.568401	1.024564	1
H	-3.409858	0.199099	-0.573416	1
H	-0.970288	0.090239	1.348064	1
H	-1.276638	-0.105231	-1.705756	1
H	1.053332	-0.525081	-1.768966	1
H	1.070722	1.484749	0.637314	1
H	2.055282	1.558149	-0.847256	1
H	3.236972	-0.567801	-0.256176	1
H	2.795092	-0.137271	1.418254	1
H	1.399012	-2.088521	-0.012766	1
Es	2.682898	-0.181055	1.103358	99
Es	1.344546	-1.704752	0.084867	99
Es	-3.132273	0.881413	0.737994	99
Es	-2.962905	0.232838	0.425271	99
Es	1.074421	0.390287	-0.501289	99
Es	2.980411	-0.473050	-0.062624	99
Es	-1.144044	0.092742	1.039916	99
Es	1.555270	0.887011	-0.143817	99
Es	-1.150249	-0.333457	-0.174793	99
Es	-2.222464	0.155290	0.399751	99
Es	-1.478585	0.076752	0.385763	99
Es	-1.114651	-0.097258	-1.405157	99
Es	0.976513	-0.802401	-0.200216	99
Es	1.779456	-0.822530	0.347130	99
Es	-3.255000	-0.309592	0.832325	99
Es	-1.083969	0.322901	-0.219142	99
Es	1.218497	1.282132	0.391176	99
Es	-0.042444	-0.161206	-0.763251	99
Es	2.413193	-0.268701	0.402574	99
Es	0.951499	-0.433271	-1.462515	99
Es	1.008611	-1.107663	0.600265	99
Es	-0.771239	-0.085586	-0.744354	99
Es	2.051759	0.370262	0.150333	99
Es	0.702884	-0.237881	-0.767494	99
Es	1.898701	1.349266	-0.629859	99
Es	1.218625	-1.135654	0.293603	99
Es	-3.262900	0.209399	-0.256330	99
45
Properties=species:S:1:pos:R:3:Z:I:1 energy=-288.0948134018891 field_type=dipole dipole="0.000000 0.000000 0.000000" charge=0
C	-2.962938	0.232839	0.425264	6
C	-1.478488	0.076739	0.385674	6
C	-0.771298	-0.085581	-0.744256	6
C	0.702842	-0.237821	-0.767606	6
C	1.555252	0.887069	-0.143806	6
C	2.413322	-0.268631	0.402604	6
N	1.218272	-1.135661	0.294064	7
H	-3.224628	1.191119	0.884204	1
H	-3.405958	-0.568401	1.024564	1
H	-3.409858	0.199099	-0.573416	1
H	-0.970288	0.090239	1.348064	1
H	-1.276638	-0.105231	-1.705756	1
H	1.053332	-0.525081	-1.768966	1
H	1.070722	1.484749	0.637314	1
H	2.055282	1.558149	-0.847256	1
H	3.236972	-0.567801	-0.256176	1
H	2.795092	-0.137271	1.418254	1
H	1.399012	-2.088521	-0.012766	1
Es	-3.254693	-0.309683	0.832032	99
Es	0.978927	-0.803368	-0.200172	99
Es	1.218609	-1.135652	0.293604	99
Es	-1.144227	0.092986	1.039944	99
Es	1.778387	-0.822817	0.345032	99
Es	-2.962903	0.232835	0.425268	99
Es	-0.042450	-0.161093	-0.762964	99
Es	-2.222354	0.155426	0.399758	99
Es	-1.478586	0.076755	0.385762	99
Es	-0.771237	-0.085588	-0.744355	99
Es	1.555270	0.887011	-0.143817	99
Es	0.702885	-0.237882	-0.767493	99
Es	1.345745	-1.702740	0.083552	99
Es	0.951908	-0.433184	-1.463103	99
Es	2.413194	-0.268697	0.402573	99
Es	2.682536	-0.180766	1.103563	99
Es	-1.083993	0.323183	-0.219013	99
Es	1.218214	1.282206	0.391963	99
Es	2.980762	-0.472974	-0.063279	99
Es	1.899245	1.348881	-0.630342	99
Es	-1.150101	-0.333938	-0.174606	99
Es	-1.114656	-0.097437	-1.405173	99
Es	2.050823	0.369887	0.150081	99
Es	-3.262902	0.209449	-0.256398	99
Es	-3.132437	0.881412	0.738418	99
Es	1.005997	-1.107471	0.603515	99
Es	1.074601	0.389493	-0.500863	99
45
Properties=species:S:1:pos:R:3:Z:I:1 energy=-288.0948134018891 field_type=dipole dipole="0.000000 0.000000 0.000000" charge=0
C	-2.962938	0.232839	0.425264	6
C	-1.478488	0.076739	0.385674	6
C	-0.771298	-0.085581	-0.744256	6
C	0.702842	-0.237821	-0.767606	6
C	1.555252	0.887069	-0.143806	6
C	2.413322	-0.268631	0.402604	6
N	1.218272	-1.135661	0.294064	7
H	-3.224628	1.191119	0.884204	1
H	-3.405958	-0.568401	1.024564	1
H	-3.409858	0.199099	-0.573416	1
H	-0.970288	0.090239	1.348064	1
H	-1.276638	-0.105231	-1.705756	1
H	1.053332	-0.525081	-1.768966	1
H	1.070722	1.484749	0.637314	1
H	2.055282	1.558149	-0.847256	1
H	3.236972	-0.567801	-0.256176	1
H	2.795092	-0.137271	1.418254	1
H	1.399012	-2.088521	-0.012766	1
Es	-1.084052	0.323595	-0.219101	99
Es	-2.222323	0.155250	0.400105	99
Es	1.075041	0.389005	-0.500257	99
Es	1.346558	-1.701523	0.082717	99
Es	-1.150105	-0.334150	-0.174416	99
Es	0.980196	-0.803547	-0.200291	99
Es	1.777375	-0.823251	0.343846	99
Es	-2.962904	0.232838	0.425270	99
Es	-1.114523	-0.097587	-1.405193	99
Es	-1.478585	0.076755	0.385762	99
Es	-1.144209	0.093025	1.039870	99
Es	1.555269	0.887011	-0.143817	99
Es	-0.771235	-0.085586	-0.744355	99
Es	1.899538	1.348610	-0.630920	99
Es	1.217926	1.282111	0.392723	99
Es	2.981016	-0.472775	-0.063838	99
Es	-3.254817	-0.309495	0.832229	99
Es	2.413193	-0.268697	0.402573	99
Es	2.682212	-0.180355	1.103832	99
Es	-0.042451	-0.160820	-0.762621	99
Es	2.050128	0.369157	0.149677	99
Es	-3.132386	0.881522	0.738155	99
Es	1.218626	-1.135661	0.293607	99
Es	0.702884	-0.237882	-0.767495	99
Es	-3.262764	0.209223	-0.256464	99
Es	0.952219	-0.433175	-1.463592	99
Es	1.004740	-1.107360	0.605477	99
45
Properties=species:S:1:pos:R:3:Z:I:1 energy=-288.0948134018891 field_type=dipole dipole="0.000000 0.000000 0.000000" charge=0
C	-2.962938	0.232839	0.425264	6
C	-1.478488	0.076739	0.385674	6
C	-0.771298	-0.085581	-0.744256	6
C	0.702842	-0.237821	-0.767606	6
C	1.555252	0.887069	-0.143806	6
C	2.413322	-0.268631	0.402604	6
N	1.218272	-1.135661	0.294064	7
H	-3.224628	1.191119	0.884204	1
H	-3.405958	-0.568401	1.024564	1
H	-3.409858	0.199099	-0.573416	1
H	-0.970288	0.090239	1.348064	1
H	-1.276638	-0.105231	-1.705756	1
H	1.053332	-0.525081	-1.768966	1
H	1.070722	1.484749	0.637314	1
H	2.055282	1.558149	-0.847256	1
H	3.236972	-0.567801	-0.256176	1
H	2.795092	-0.137271	1.418254	1
H	1.399012	-2.088521	-0.012766	1
Es	2.681972	-0.180135	1.104035	99
Es	-0.042467	-0.160923	-0.762472	99
Es	-1.144210	0.093070	1.039779	99
Es	1.899933	1.348444	-0.631126	99
Es	0.952493	-0.433084	-1.463902	99
Es	-3.262798	0.209283	-0.256501	99
Es	-2.222369	0.155346	0.400185	99
Es	-2.962904	0.232838	0.425269	99
Es	1.003763	-1.107181	0.607335	99
Es	0.981477	-0.803801	-0.200121	99
Es	1.347087	-1.700401	0.081905	99
Es	1.217797	1.282003	0.393191	99
Es	2.981172	-0.472585	-0.064370	99
Es	-1.083962	0.323773	-0.218980	99
Es	-1.114517	-0.097646	-1.405139	99
Es	2.049496	0.368672	0.149588	99
Es	-3.132438	0.881499	0.738409	99
Es	-0.771235	-0.085584	-0.744356	99
Es	1.776616	-0.823656	0.342522	99
Es	1.555270	0.887009	-0.143818	99
Es	-1.478585	0.076756	0.385762	99
Es	0.702886	-0.237882	-0.767493	99
Es	1.075072	0.388567	-0.500116	99
Es	2.413193	-0.268696	0.402572	99
Es	1.218600	-1.135657	0.293631	99
Es	-1.150106	-0.334284	-0.174361	99
Es	-3.254670	-0.309508	0.832054	99
45
Properties=species:S:1:pos:R:3:Z:I:1 energy=-288.0948134018891 field_type=dipole dipole="0.000000 0.000000 0.000000" charge=0
C	-2.962938	0.232839	0.425264	6
C	-1.478488	0.076739	0.385674	6
C	-0.771298	-0.085581	-0.744256	6
C	0.702842	-0.237821	-0.767606	6
C	1.555252	0.887069	-0.143806	6
C	2.413322	-0.268631	0.402604	6
N	1.218272	-1.135661	0.294064	7
H	-3.224628	1.191119	0.884204	1
H	-3.405958	-0.568401	1.024564	1
H	-3.409858	0.199099	-0.573416	1
H	-0.970288	0.090239	1.348064	1
H	-1.276638	-0.105231	-1.705756	1
H	1.053332	-0.525081	-1.768966	1
H	1.070722	1.484749	0.637314	1
H	2.055282	1.558149	-0.847256	1
H	3.236972	-0.567801	-0.256176	1
H	2.795092	-0.137271	1.418254	1
H	1.399012	-2.088521	-0.012766	1
Es	0.982867	-0.804027	-0.200240	99
Es	2.413193	-0.268698	0.402572	99
Es	-0.042431	-0.160838	-0.762414	99
Es	-3.132502	0.881478	0.738593	99
Es	-1.478584	0.076758	0.385762	99
Es	2.049147	0.368403	0.149453	99
Es	-1.150036	-0.334365	-0.174240	99
Es	-1.114572	-0.097741	-1.405102	99
Es	-2.962905	0.232837	0.425271	99
Es	-1.144184	0.093111	1.039763	99
Es	-0.771236	-0.085585	-0.744355	99
Es	-3.254543	-0.309496	0.831923	99
Es	1.075214	0.388142	-0.499794	99
Es	1.217644	1.282013	0.393580	99
Es	1.347476	-1.699752	0.081490	99
Es	0.702885	-0.237882	-0.767494	99
Es	1.218605	-1.135656	0.293610	99
Es	-1.083972	0.323925	-0.218960	99
Es	-3.262843	0.209299	-0.256512	99
Es	0.952726	-0.432961	-1.464167	99
Es	1.900172	1.348164	-0.631459	99
Es	-2.222318	0.155315	0.400248	99
Es	1.555270	0.887010	-0.143817	99
Es	1.775646	-0.824144	0.341712	99
Es	2.681716	-0.179991	1.104193	99
Es	1.002801	-1.106624	0.608546	99
Es	2.981329	-0.472458	-0.064675	99
45
Properties=species:S:1:pos:R:3:Z:I:1 energy=-288.0948134018891 field_type=dipole dipole="0.000000 0.000000 0.000000" charge=0
C	-2.962938	0.232839	0.425264	6
C	-1.478488	0.076739	0.385674	6
C	-0.771298	-0.085581	-0.744256	6
C	0.702842	-0.237821	-0.767606	6
C	1.555252	0.887069	-0.143806	6
C	2.413322	-0.268631	0.402604	6
N	1.218272	-1.135661	0.294064	7
H	-3.224628	1.191119	0.884204	1
H	-3.405958	-0.568401	1.024564	1
H	-3.409858	0.199099	-0.573416	1
H	-0.970288	0.090239	1.348064	1
H	-1.276638	-0.105231	-1.705756	1
H	1.053332	-0.525081	-1.768966	1
H	1.070722	1.484749	0.637314	1
H	2.055282	1.558149	-0.847256	1
H	3.236972	-0.567801	-0.256176	1
H	2.795092	-0.137271	1.418254	1
H	1.399012	-2.088521	-0.012766	1
Es	0.702884	-0.237881	-0.767495	99
Es	1.775050	-0.823957	0.340430	99
Es	2.681553	-0.179749	1.104370	99
Es	1.555269	0.887012	-0.143817	99
Es	-1.114532	-0.097711	-1.405160	99
Es	-3.262770	0.209266	-0.256621	99
Es	-2.222284	0.155318	0.400364	99
Es	-3.254589	-0.309427	0.831976	99
Es	2.413191	-0.268698	0.402573	99
Es	-1.478585	0.076757	0.385761	99
Es	2.048656	0.367991	0.149266	99
Es	-1.144275	0.093078	1.039797	99
Es	1.002533	-1.106476	0.609736	99
Es	1.075281	0.387884	-0.499604	99
Es	-1.150052	-0.334457	-0.174167	99
Es	0.983070	-0.804535	-0.199734	99
Es	-0.042444	-0.160748	-0.762225	99
Es	1.218600	-1.135645	0.293617	99
Es	1.348135	-1.699195	0.080940	99
Es	-1.083920	0.323983	-0.218919	99
Es	2.981394	-0.472331	-0.064994	99
Es	-0.771237	-0.085586	-0.744355	99
Es	0.952950	-0.432880	-1.464343	99
Es	-2.962904	0.232838	0.425270	99
Es	1.217587	1.281903	0.393922	99
Es	-3.132479	0.881454	0.738533	99
Es	1.900482	1.348028	-0.631634	99
45
Properties=species:S:1:pos:R:3:Z:I:1 energy=-288.0948134018891 field_type=dipole dipole="0.000000 0.000000 0.000000" charge=0
C	-2.962938	0.232839	0.425264	6
C	-1.478488	0.076739	0.385674	6
C	-0.771298	-0.085581	-0.744256	6
C	0.702842	-0.237821	-0.767606	6
C	1.555252	0.887069	-0.143806	6
C	2.413322	-0.268631	0.402604	6
N	1.218272	-1.135661	0.294064	7
H	-3.224628	1.191119	0.884204	1
H	-3.405958	-0.568401	1.024564	1
H	-3.409858	0.199099	-0.573416	1
H	-0.970288	0.090239	1.348064	1
H	-1.276638	-0.105231	-1.705756	1
H	1.053332	-0.525081	-1.768966	1
H	1.070722	1.484749	0.637314	1
H	2.055282	1.558149	-0.847256	1
H	3.236972	-0.567801	-0.256176	1
H	2.795092	-0.137271	1.418254	1
H	1.399012	-2.088521	-0.012766	1
Es	1.218597	-1.135654	0.293617	99
Es	1.348215	-1.698653	0.080292	99
Es	-3.262768	0.209213	-0.256679	99
Es	1.774623	-0.824461	0.340018	99
Es	0.953073	-0.432853	-1.464489	99
Es	2.981373	-0.472130	-0.065347	99
Es	-1.150087	-0.334389	-0.174012	99
Es	2.048350	0.367566	0.149200	99
Es	1.900585	1.347880	-0.631963	99
Es	0.702885	-0.237883	-0.767494	99
Es	-1.083828	0.324214	-0.219009	99
Es	-3.132494	0.881514	0.738653	99
Es	-1.144293	0.093075	1.039764	99
Es	1.217431	1.281822	0.394175	99
Es	1.555269	0.887012	-0.143817	99
Es	-2.222358	0.155240	0.400435	99
Es	-0.042517	-0.160791	-0.762058	99
Es	1.002105	-1.106355	0.610554	99
Es	-1.478586	0.076753	0.385763	99
Es	2.681475	-0.179535	1.104544	99
Es	-1.114508	-0.097823	-1.405132	99
Es	-0.771236	-0.085591	-0.744356	99
Es	1.075521	0.387633	-0.499378	99
Es	0.983933	-0.804319	-0.199538	99
Es	-3.254487	-0.309390	0.831899	99
Es	-2.962904	0.232838	0.425270	99
Es	2.413195	-0.268697	0.402572	99
45
Properties=species:S:1:pos:R:3:Z:I:1 energy=-288.0948134018891 field_type=dipole dipole="0.000000 0.000000 0.000000" charge=0
C	-2.962938	0.232839	0.425264	6
C	-1.478488	0.076739	0.385674	6
C	-0.771298	-0.085581	-0.744256	6
C	0.702842	-0.237821	-0.767606	6
C	1.555252	0.887069	-0.143806	6
C	2.413322	-0.268631	0.402604	6
N	1.218272	-1.135661	0.294064	7
H	-3.224628	1.191119	0.884204	1
H	-3.405958	-0.568401	1.024564	1
H	-3.409858	0.199099	-0.573416	1
H	-0.970288	0.090239	1.348064	1
H	-1.276638	-0.105231	-1.705756	1
H	1.053332	-0.525081	-1.768966	1
H	1.070722	1.484749	0.637314	1
H	2.055282	1.558149	-0.847256	1
H	3.236972	-0.567801	-0.256176	1
H	2.795092	-0.137271	1.418254	1
H	1.399012	-2.088521	-0.012766	1
Es	-2.222394	0.155338	0.400459	99
Es	-3.132523	0.881503	0.738706	99
Es	-1.114567	-0.097759	-1.405043	99
Es	0.702885	-0.237883	-0.767494	99
Es	-0.042457	-0.160767	-0.762090	99
Es	1.218604	-1.135674	0.293597	99
Es	1.348786	-1.698035	0.080045	99
Es	0.984410	-0.804395	-0.199694	99
Es	1.001736	-1.106411	0.611291	99
Es	-3.254384	-0.309443	0.831905	99
Es	2.681224	-0.179191	1.104628	99
Es	-0.771235	-0.085586	-0.744358	99
Es	2.981520	-0.472103	-0.065498	99
Es	1.217442	1.281813	0.394446	99
Es	1.900811	1.347676	-0.632137	99
Es	-1.144289	0.093145	1.039715	99
Es	1.075541	0.387392	-0.499188	99
Es	-1.083858	0.324201	-0.218905	99
Es	1.773974	-0.824622	0.339684	99
Es	0.953249	-0.432818	-1.464608	99
Es	-2.962904	0.232837	0.425271	99
Es	2.047939	0.367298	0.148955	99
Es	1.555270	0.887013	-0.143815	99
Es	2.413192	-0.268696	0.402571	99
Es	-3.262781	0.209200	-0.256690	99
Es	-1.478588	0.076747	0.385763	99
Es	-1.150040	-0.334542	-0.174032	99
45
Properties=species:S:1:pos:R:3:Z:I:1 energy=-288.0948134018891 field_type=dipole dipole="0.000000 0.000000 0.000000" charge=0
C	-2.962938	0.232839	0.425264	6
C	-1.478488	0.076739	0.385674	6
C	-0.771298	-0.085581	-0.744256	6
C	0.702842	-0.237821	-0.767606	6
C	1.555252	0.887069	-0.143806	6
C	2.413322	-0.268631	0.402604	6
N	1.218272	-1.135661	0.294064	7
H	-3.224628	1.191119	0.884204	1
H	-3.405958	-0.568401	1.024564	1
H	-3.409858	0.199099	-0.573416	1
H	-0.970288	0.090239	1.348064	1
H	-1.276638	-0.105231	-1.705756	1
H	1.053332	-0.525081	-1.768966	1
H	1.070722	1.484749	0.637314	1
H	2.055282	1.558149	-0.847256	1
H	3.236972	-0.567801	-0.256176	1
H	2.795092	-0.137271	1.418254	1
H	1.399012	-2.088521	-0.012766	1
Es	-0.042464	-0.160565	-0.761977	99
Es	-0.771236	-0.085586	-0.744355	99
Es	1.348792	-1.697768	0.079865	99
Es	0.953323	-0.432718	-1.464740	99
Es	-1.478584	0.076754	0.385762	99
Es	2.413194	-0.268697	0.402572	99
Es	-3.262762	0.209398	-0.256664	99
Es	1.218562	-1.135649	0.293677	99
Es	-1.144237	0.093110	1.039666	99
Es	2.681181	-0.179258	1.104743	99
Es	2.981496	-0.471906	-0.065753	99
Es	-1.114560	-0.097844	-1.405065	99
Es	1.217424	1.281718	0.394661	99
Es	1.900936	1.347608	-0.632249	99
Es	1.555269	0.887012	-0.143817	99
Es	1.001591	-1.105843	0.612073	99
Es	2.047742	0.367142	0.148972	99
Es	-3.132530	0.881448	0.738922	99
Es	1.773492	-0.825045	0.338767	99
Es	-2.222332	0.155266	0.400559	99
Es	0.702883	-0.237882	-0.767496	99
Es	1.075658	0.387170	-0.499016	99
Es	-1.150000	-0.334608	-0.174039	99
Es	-1.083894	0.324250	-0.218845	99
Es	-2.962904	0.232838	0.425271	99
Es	0.984969	-0.804657	-0.199674	99
Es	-3.254447	-0.309452	0.831664	99
45
Properties=species:S:1:pos:R:3:Z:I:1 energy=-288.0948134018891 field_type=dipole dipole="0.000000 0.000000 0.000000" charge=0
C	-2.962938	0.232839	0.425264	6
C	-1.478488	0.076739	0.385674	6
C	-0.771298	-0.085581	-0.744256	6
C	0.702842	-0.237821	-0.767606	6
C	1.555252	0.887069	-0.143806	6
C	2.413322	-0.268631	0.402604	6
N	1.218272	-1.135661	0.294064	7
H	-3.224628	1.191119	0.884204	1
H	-3.405958	-0.568401	1.024564	1
H	-3.409858	0.199099	-0.573416	1
H	-0.970288	0.090239	1.348064	1
H	-1.276638	-0.105231	-1.705756	1
H	1.053332	-0.525081	-1.768966	1
H	1.070722	1.484749	0.637314	1
H	2.055282	1.558149	-0.847256	1
H	3.236972	-0.567801	-0.256176	1
H	2.795092	-0.137271	1.418254	1
H	1.399012	-2.088521	-0.012766	1
Es	1.773337	-0.824988	0.338507	99
Es	0.953372	-0.432654	-1.464805	99
Es	-1.083920	0.324274	-0.218781	99
Es	1.901020	1.347473	-0.632486	99
Es	-3.254374	-0.309400	0.831827	99
Es	2.047613	0.366893	0.148967	99
Es	1.075851	0.386946	-0.498932	99
Es	-2.222324	0.155338	0.400526	99
Es	-1.114481	-0.097873	-1.405172	99
Es	1.217267	1.281704	0.394732	99
Es	1.218598	-1.135665	0.293626	99
Es	2.981466	-0.471891	-0.065938	99
Es	-0.771236	-0.085584	-0.744356	99
Es	-3.262777	0.209231	-0.256710	99
Es	1.555270	0.887012	-0.143817	99
Es	1.001007	-1.106003	0.612494	99
Es	2.413194	-0.268696	0.402572	99
Es	1.348984	-1.697191	0.079381	99
Es	-1.478586	0.076756	0.385762	99
Es	-1.149925	-0.334768	-0.173973	99
Es	-1.144282	0.093286	1.039708	99
Es	2.681118	-0.179147	1.104862	99
Es	0.985600	-0.804807	-0.199358	99
Es	-2.962904	0.232838	0.425270	99
Es	0.702884	-0.237884	-0.767495	99
Es	-3.132533	0.881483	0.738792	99
Es	-0.042674	-0.160448	-0.761720	99
45
Properties=species:S:1:pos:R:3:Z:I:1 energy=-288.0948134018891 field_type=dipole dipole="0.000000 0.000000 0.000000" charge=0
C	-2.962938	0.232839	0.425264	6
C	-1.478488	0.076739	0.385674	6
C	-0.771298	-0.085581	-0.744256	6
C	0.702842	-0.237821	-0.767606	6
C	1.555252	0.887069	-0.143806	6
C	2.413322	-0.268631	0.402604	6
N	1.218272	-1.135661	0.294064	7
H	-3.224628	1.191119	0.884204	1
H	-3.405958	-0.568401	1.024564	1
H	-3.409858	0.199099	-0.573416	1
H	-0.970288	0.090239	1.348064	1
H	-1.276638	-0.105231	-1.705756	1
H	1.053332	-0.525081	-1.768966	1
H	1.070722	1.484749	0.637314	1
H	2.055282	1.558149	-0.847256	1
H	3.236972	-0.567801	-0.256176	1
H	2.795092	-0.137271	1.418254	1
H	1.399012	-2.088521	-0.012766	1
Es	-1.114506	-0.098020	-1.405117	99
Es	1.075901	0.386909	-0.498909	99
Es	1.901132	1.347475	-0.632508	99
Es	-0.771236	-0.085587	-0.744356	99
Es	-3.262721	0.209081	-0.256743	99
Es	2.047420	0.366867	0.148792	99
Es	0.985963	-0.804683	-0.199324	99
Es	-1.149885	-0.334751	-0.173905	99
Es	1.773066	-0.825344	0.338186	99
Es	-0.042597	-0.160489	-0.761739	99
Es	-3.254444	-0.309269	0.831950	99
Es	1.349034	-1.696582	0.079056	99
Es	-1.144352	0.093259	1.039729	99
Es	1.555269	0.887013	-0.143816	99
Es	-2.962904	0.232838	0.425270	99
Es	2.981543	-0.471902	-0.065978	99
Es	1.217192	1.281540	0.394938	99
Es	2.681001	-0.179045	1.104860	99
Es	0.702884	-0.237883	-0.767495	99
Es	-2.222324	0.155301	0.400573	99
Es	2.413194	-0.268696	0.402572	99
Es	1.218583	-1.135661	0.293627	99
Es	0.953483	-0.432699	-1.464871	99
Es	1.000826	-1.106168	0.613096	99
Es	-1.478585	0.076756	0.385762	99
Es	-3.132479	0.881579	0.738630	99
Es	-1.083896	0.324397	-0.218797	99
45
Properties=species:S:1:pos:R:3:Z:I:1 energy=-288.0948134018891 field_type=dipole dipole="0.000000 0.000000 0.000000" charge=0
C	-2.962938	0.232839	0.425264	6
C	-1.478488	0.076739	0.385674	6
C	-0.771298	-0.085581	-0.744256	6
C	0.702842	-0.237821	-0.767606	6
C	1.555252	0.887069	-0.143806	6
C	2.413322	-0.268631	0.402604	6
N	1.218272	-1.135661	0.294064	7
H	-3.224628	1.191119	0.884204	1
H	-3.405958	-0.568401	1.024564	1
H	-3.409858	0.199099	-0.573416	1
H	-0.970288	0.090239	1.348064	1
H	-1.276638	-0.105231	-1.705756	1
H	1.053332	-0.525081	-1.768966	1
H	1.070722	1.484749	0.637314	1
H	2.055282	1.558149	-0.847256	1
H	3.236972	-0.567801	-0.256176	1
H	2.795092	-0.137271	1.418254	1
H	1.399012	-2.088521	-0.012766	1
Es	-0.042626	-0.160503	-0.761626	99
Es	-1.144326	0.093229	1.039715	99
Es	-2.222323	0.155405	0.400595	99
Es	1.218598	-1.135667	0.293613	99
Es	-0.771235	-0.085586	-0.744356	99
Es	-3.262796	0.209136	-0.256796	99
Es	-1.478585	0.076756	0.385762	99
Es	1.349171	-1.696847	0.079170	99
Es	1.217182	1.281550	0.395036	99
Es	-3.132598	0.881467	0.738866	99
Es	-3.254269	-0.309293	0.831775	99
Es	-1.083813	0.324342	-0.218723	99
Es	2.047245	0.366596	0.148805	99
Es	-1.149963	-0.334704	-0.173939	99
Es	1.000617	-1.105418	0.613257	99
Es	-2.962902	0.232838	0.425271	99
Es	1.772673	-0.825377	0.337832	99
Es	1.555273	0.886995	-0.143815	99
Es	1.901248	1.347338	-0.632673	99
Es	0.986444	-0.804912	-0.199329	99
Es	1.075914	0.386637	-0.498768	99
Es	0.702885	-0.237882	-0.767495	99
Es	-1.114509	-0.097882	-1.405130	99
Es	2.413195	-0.268696	0.402572	99
Es	2.680900	-0.178946	1.104996	99
Es	2.981536	-0.471744	-0.066174	99
Es	0.953628	-0.432596	-1.464957	99
