43
Properties=species:S:1:pos:R:3:Z:I:1 energy=-270.935757702631 field_type=dipole dipole="0.000000 0.000000 0.000000" charge=0
C	-2.287783	-0.123859	-0.045241	6
C	-0.833293	0.174581	0.062369	6
C	-0.243503	1.351241	-0.223091	6
C	1.246737	1.241861	-0.023401	6
C	1.478387	-0.190009	0.415519	6
C	1.169557	-1.361109	-0.482551	6
C	0.123157	-0.869279	0.479209	6
H	-2.446523	-1.129199	-0.452831	1
H	-2.793843	0.585011	-0.705261	1
H	-2.758753	-0.074909	0.942759	1
H	-0.746453	2.246941	-0.555501	1
H	1.783907	1.457241	-0.951331	1
H	1.574757	1.939401	0.753159	1
H	2.172267	-0.308719	1.234039	1
H	1.649897	-2.307319	-0.263411	1
H	1.028637	-1.179569	-1.542801	1
H	-0.117153	-1.452309	1.358369	1
Es	0.504681	1.334118	-0.132099	99
Es	-2.628937	0.362033	-0.490232	99
Es	1.957177	-0.280904	0.968405	99
Es	-0.048469	-1.275527	1.068511	99
Es	-1.564376	0.023040	0.010254	99
Es	1.071285	-1.234480	-1.199984	99
Es	1.384724	0.517765	0.174280	99
Es	0.492864	-1.240139	-0.073112	99
Es	1.508314	-0.747123	-0.124111	99
Es	1.169498	-1.360999	-0.482417	99
Es	-0.585946	0.878458	0.226954	99
Es	-2.287754	-0.123857	-0.045232	99
Es	-0.579320	1.965037	-0.453967	99
Es	-0.378150	-0.382117	0.258601	99
Es	1.472023	1.713639	0.506798	99
Es	-2.596172	-0.091233	0.624570	99
Es	1.478278	-0.190111	0.415435	99
Es	-0.243426	1.351328	-0.223129	99
Es	-0.508430	0.686289	-0.397432	99
Es	1.494336	-1.999767	-0.326044	99
Es	1.607423	1.392320	-0.655539	99
Es	-2.388644	-0.805827	-0.320155	99
Es	-0.833367	0.174446	0.062402	99
Es	0.769348	-0.461139	0.589242	99
Es	1.246706	1.241835	-0.023398	99
Es	0.123302	-0.869265	0.479133	99
43
Properties=species:S:1:pos:R:3:Z:I:1 energy=-270.935757702631 field_type=dipole dipole="0.000000 0.000000 0.000000" charge=0
C	-2.287783	-0.123859	-0.045241	6
C	-0.833293	0.174581	0.062369	6
C	-0.243503	1.351241	-0.223091	6
C	1.246737	1.241861	-0.023401	6
C	1.478387	-0.190009	0.415519	6
C	1.169557	-1.361109	-0.482551	6
C	0.123157	-0.869279	0.479209	6
H	-2.446523	-1.129199	-0.452831	1
H	-2.793843	0.585011	-0.705261	1
H	-2.758753	-0.074909	0.942759	1
H	-0.746453	2.246941	-0.555501	1
H	1.783907	1.457241	-0.951331	1
H	1.574757	1.939401	0.753159	1
H	2.172267	-0.308719	1.234039	1
H	1.649897	-2.307319	-0.263411	1
H	1.028637	-1.179569	-1.542801	1
H	-0.117153	-1.452309	1.358369	1
Es	1.607157	1.392583	-0.655682	99
Es	0.505733	1.334345	-0.132168	99
Es	-2.596382	-0.089553	0.623138	99
Es	-2.627798	0.360425	-0.487705	99
Es	1.169500	-1.360994	-0.482414	99
Es	1.478279	-0.190108	0.415441	99
Es	-0.584819	0.878343	0.228307	99
Es	-0.243424	1.351329	-0.223131	99
Es	1.246707	1.241834	-0.023398	99
Es	-2.390283	-0.807842	-0.321271	99
Es	1.471722	1.714139	0.506907	99
Es	1.071660	-1.235264	-1.196970	99
Es	-0.376586	-0.382861	0.257446	99
Es	-0.508724	0.686098	-0.399518	99
Es	1.493125	-2.000122	-0.327432	99
Es	-0.833369	0.174445	0.062402	99
Es	0.770499	-0.461261	0.591373	99
Es	0.487956	-1.240252	-0.074827	99
Es	0.123312	-0.869260	0.479129	99
Es	1.511958	-0.744059	-0.122351	99
Es	-1.564064	0.023943	0.010552	99
Es	1.386042	0.518941	0.174002	99
Es	1.955648	-0.281297	0.965325	99
Es	-0.578751	1.965095	-0.451802	99
Es	-2.287755	-0.123857	-0.045232	99
Es	-0.050375	-1.276974	1.067609	99
43
Properties=species:S:1:pos:R:3:Z:I:1 energy=-270.935757702631 field_type=dipole dipole="0.000000 0.000000 0.000000" charge=0
C	-2.287783	-0.123859	-0.045241	6
C	-0.833293	0.174581	0.062369	6
C	-0.243503	1.351241	-0.223091	6
C	1.246737	1.241861	-0.023401	6
C	1.478387	-0.190009	0.415519	6
C	1.169557	-1.361109	-0.482551	6
C	0.123157	-0.869279	0.479209	6
H	-2.446523	-1.129199	-0.452831	1
H	-2.793843	0.585011	-0.705261	1
H	-2.758753	-0.074909	0.942759	1
H	-0.746453	2.246941	-0.555501	1
H	1.783907	1.457241	-0.951331	1
H	1.574757	1.939401	0.753159	1
H	2.172267	-0.308719	1.234039	1
H	1.649897	-2.307319	-0.263411	1
H	1.028637	-1.179569	-1.542801	1
H	-0.117153	-1.452309	1.358369	1
Es	1.246706	1.241835	-0.023400	99
Es	1.169499	-1.360992	-0.482412	99
Es	0.123316	-0.869263	0.479129	99
Es	-1.563772	0.024551	0.010433	99
Es	-2.627033	0.358785	-0.485713	99
Es	1.606888	1.392867	-0.655948	99
Es	1.471373	1.714468	0.506809	99
Es	0.485403	-1.239453	-0.075858	99
Es	-0.578514	1.965041	-0.450543	99
Es	-0.375129	-0.383360	0.256750	99
Es	1.478284	-0.190114	0.415429	99
Es	1.492382	-2.000616	-0.328596	99
Es	1.071554	-1.235943	-1.193883	99
Es	0.770515	-0.461336	0.593343	99
Es	0.506824	1.334680	-0.132101	99
Es	1.953781	-0.281713	0.962330	99
Es	-2.391708	-0.809213	-0.321698	99
Es	-2.287754	-0.123856	-0.045233	99
Es	-0.508832	0.686028	-0.400856	99
Es	-0.051857	-1.278244	1.067043	99
Es	-2.596198	-0.088107	0.622076	99
Es	-0.243426	1.351337	-0.223128	99
Es	-0.833368	0.174444	0.062399	99
Es	-0.584031	0.878206	0.229057	99
Es	1.387223	0.519766	0.174307	99
Es	1.514844	-0.741979	-0.122004	99
43
Properties=species:S:1:pos:R:3:Z:I:1 energy=-270.935757702631 field_type=dipole dipole="0.000000 0.000000 0.000000" charge=0
C	-2.287783	-0.123859	-0.045241	6
C	-0.833293	0.174581	0.062369	6
C	-0.243503	1.351241	-0.223091	6
C	1.246737	1.241861	-0.023401	6
C	1.478387	-0.190009	0.415519	6
C	1.169557	-1.361109	-0.482551	6
C	0.123157	-0.869279	0.479209	6
H	-2.446523	-1.129199	-0.452831	1
H	-2.793843	0.585011	-0.705261	1
H	-2.758753	-0.074909	0.942759	1
H	-0.746453	2.246941	-0.555501	1
H	1.783907	1.457241	-0.951331	1
H	1.574757	1.939401	0.753159	1
H	2.172267	-0.308719	1.234039	1
H	1.649897	-2.307319	-0.263411	1
H	1.028637	-1.179569	-1.542801	1
H	-0.117153	-1.452309	1.358369	1
Es	1.606758	1.393099	-0.656058	99
Es	-0.833369	0.174445	0.062399	99
Es	-0.053117	-1.279175	1.066727	99
Es	1.246707	1.241835	-0.023398	99
Es	1.471069	1.714665	0.506781	99
Es	1.071517	-1.236366	-1.190993	99
Es	1.517009	-0.740358	-0.122038	99
Es	-2.626494	0.357218	-0.484195	99
Es	1.388269	0.520316	0.174768	99
Es	-2.287753	-0.123857	-0.045231	99
Es	1.169500	-1.360989	-0.482410	99
Es	-2.596041	-0.087010	0.621188	99
Es	1.951805	-0.282043	0.959811	99
Es	-0.578379	1.965099	-0.449811	99
Es	-0.373665	-0.383828	0.256385	99
Es	0.507731	1.334878	-0.132237	99
Es	-0.243424	1.351333	-0.223116	99
Es	-1.563638	0.025340	0.010113	99
Es	-2.392656	-0.810209	-0.321794	99
Es	1.491999	-2.001147	-0.329556	99
Es	0.770801	-0.461640	0.594320	99
Es	0.123305	-0.869266	0.479130	99
Es	-0.508754	0.686098	-0.401485	99
Es	0.483078	-1.238554	-0.076415	99
Es	1.478286	-0.190117	0.415436	99
Es	-0.583573	0.878048	0.229412	99
43
Properties=species:S:1:pos:R:3:Z:I:1 energy=-270.935757702631 field_type=dipole dipole="0.000000 0.000000 0.000000" charge=0
C	-2.287783	-0.123859	-0.045241	6
C	-0.833293	0.174581	0.062369	6
C	-0.243503	1.351241	-0.223091	6
C	1.246737	1.241861	-0.023401	6
C	1.478387	-0.190009	0.415519	6
C	1.169557	-1.361109	-0.482551	6
C	0.123157	-0.869279	0.479209	6
H	-2.446523	-1.129199	-0.452831	1
H	-2.793843	0.585011	-0.705261	1
H	-2.758753	-0.074909	0.942759	1
H	-0.746453	2.246941	-0.555501	1
H	1.783907	1.457241	-0.951331	1
H	1.574757	1.939401	0.753159	1
H	2.172267	-0.308719	1.234039	1
H	1.649897	-2.307319	-0.263411	1
H	1.028637	-1.179569	-1.542801	1
H	-0.117153	-1.452309	1.358369	1
Es	-0.372461	-0.384433	0.256010	99
Es	-2.393381	-0.810841	-0.321682	99
Es	1.246702	1.241831	-0.023400	99
Es	-0.054053	-1.279946	1.066283	99
Es	-2.596073	-0.086133	0.620428	99
Es	-0.583061	0.877854	0.229530	99
Es	0.770755	-0.461564	0.595360	99
Es	0.123304	-0.869265	0.479130	99
Es	1.470629	1.714720	0.506665	99
Es	1.518569	-0.738941	-0.122381	99
Es	1.169500	-1.360993	-0.482415	99
Es	0.508448	1.335062	-0.132200	99
Es	-0.508735	0.686104	-0.401962	99
Es	-0.578366	1.965192	-0.449277	99
Es	-0.833371	0.174443	0.062404	99
Es	-2.625980	0.355836	-0.483128	99
Es	1.071395	-1.236761	-1.188298	99
Es	1.606759	1.393425	-0.656169	99
Es	0.481669	-1.237881	-0.076964	99
Es	1.389392	0.520780	0.175569	99
Es	-1.563470	0.025913	0.010042	99
Es	-0.243424	1.351329	-0.223135	99
Es	-2.287755	-0.123857	-0.045231	99
Es	1.949852	-0.282372	0.957516	99
Es	1.478282	-0.190111	0.415433	99
Es	1.491843	-2.001574	-0.330395	99
43
Properties=species:S:1:pos:R:3:Z:I:1 energy=-270.935757702631 field_type=dipole dipole="0.000000 0.000000 0.000000" charge=0
C	-2.287783	-0.123859	-0.045241	6
C	-0.833293	0.174581	0.062369	6
C	-0.243503	1.351241	-0.223091	6
C	1.246737	1.241861	-0.023401	6
C	1.478387	-0.190009	0.415519	6
C	1.169557	-1.361109	-0.482551	6
C	0.123157	-0.869279	0.479209	6
H	-2.446523	-1.129199	-0.452831	1
H	-2.793843	0.585011	-0.705261	1
H	-2.758753	-0.074909	0.942759	1
H	-0.746453	2.246941	-0.555501	1
H	1.783907	1.457241	-0.951331	1
H	1.574757	1.939401	0.753159	1
H	2.172267	-0.308719	1.234039	1
H	1.649897	-2.307319	-0.263411	1
H	1.028637	-1.179569	-1.542801	1
H	-0.117153	-1.452309	1.358369	1
Es	-2.287753	-0.123858	-0.045232	99
Es	-0.833369	0.174444	0.062398	99
Es	1.948217	-0.282511	0.955730	99
Es	-2.625654	0.354662	-0.482217	99
Es	-0.508788	0.686131	-0.402367	99
Es	1.169501	-1.360992	-0.482413	99
Es	0.480414	-1.237061	-0.077251	99
Es	1.606550	1.393463	-0.656203	99
Es	1.246707	1.241835	-0.023398	99
Es	-1.563422	0.026569	0.009699	99
Es	1.491611	-2.002113	-0.331161	99
Es	0.123303	-0.869265	0.479132	99
Es	-0.371490	-0.384698	0.256031	99
Es	1.390230	0.520997	0.176192	99
Es	-0.054814	-1.280576	1.066000	99
Es	-0.578267	1.965175	-0.448916	99
Es	1.470531	1.714950	0.506585	99
Es	-2.393915	-0.811413	-0.321472	99
Es	0.509072	1.335173	-0.132345	99
Es	1.478276	-0.190115	0.415442	99
Es	-2.595918	-0.085428	0.619835	99
Es	0.771001	-0.461971	0.595692	99
Es	-0.582754	0.877819	0.229784	99
Es	1.071196	-1.236996	-1.185965	99
Es	-0.243424	1.351331	-0.223133	99
Es	1.519926	-0.737735	-0.122714	99
43
Properties=species:S:1:pos:R:3:Z:I:1 energy=-270.935757702631 field_type=dipole dipole="0.000000 0.000000 0.000000" charge=0
C	-2.287783	-0.123859	-0.045241	6
C	-0.833293	0.174581	0.062369	6
C	-0.243503	1.351241	-0.223091	6
C	1.246737	1.241861	-0.023401	6
C	1.478387	-0.190009	0.415519	6
C	1.169557	-1.361109	-0.482551	6
C	0.123157	-0.869279	0.479209	6
H	-2.446523	-1.129199	-0.452831	1
H	-2.793843	0.585011	-0.705261	1
H	-2.758753	-0.074909	0.942759	1
H	-0.746453	2.246941	-0.555501	1
H	1.783907	1.457241	-0.951331	1
H	1.574757	1.939401	0.753159	1
H	2.172267	-0.308719	1.234039	1
H	1.649897	-2.307319	-0.263411	1
H	1.028637	-1.179569	-1.542801	1
H	-0.117153	-1.452309	1.358369	1
Es	1.491580	-2.002406	-0.331653	99
Es	1.478286	-0.190102	0.415438	99
Es	-2.625424	0.353860	-0.481420	99
Es	1.246707	1.241835	-0.023398	99
Es	-0.243423	1.351331	-0.223129	99
Es	-0.370618	-0.385137	0.255734	99
Es	-0.833367	0.174444	0.062398	99
Es	-0.578221	1.965272	-0.448686	99
Es	-1.563413	0.026917	0.009436	99
Es	1.606555	1.393707	-0.656306	99
Es	0.771097	-0.461924	0.596206	99
Es	1.946664	-0.282597	0.954031	99
Es	1.520775	-0.736913	-0.123021	99
Es	-0.582356	0.877775	0.229907	99
Es	1.390928	0.521116	0.176773	99
Es	1.470268	1.714916	0.506531	99
Es	0.123306	-0.869267	0.479129	99
Es	-0.508875	0.686150	-0.402453	99
Es	0.479483	-1.236559	-0.077411	99
Es	1.169497	-1.360991	-0.482410	99
Es	0.509671	1.335283	-0.132364	99
Es	1.071171	-1.237245	-1.184076	99
Es	-2.287753	-0.123858	-0.045231	99
Es	-2.394375	-0.811757	-0.321409	99
Es	-2.595749	-0.085048	0.619354	99
Es	-0.055447	-1.280985	1.065763	99
43
Properties=species:S:1:pos:R:3:Z:I:1 energy=-270.935757702631 field_type=dipole dipole="0.000000 0.000000 0.000000" charge=0
C	-2.287783	-0.123859	-0.045241	6
C	-0.833293	0.174581	0.062369	6
C	-0.243503	1.351241	-0.223091	6
C	1.246737	1.241861	-0.023401	6
C	1.478387	-0.190009	0.415519	6
C	1.169557	-1.361109	-0.482551	6
C	0.123157	-0.869279	0.479209	6
H	-2.446523	-1.129199	-0.452831	1
H	-2.793843	0.585011	-0.705261	1
H	-2.758753	-0.074909	0.942759	1
H	-0.746453	2.246941	-0.555501	1
H	1.783907	1.457241	-0.951331	1
H	1.574757	1.939401	0.753159	1
H	2.172267	-0.308719	1.234039	1
H	1.649897	-2.307319	-0.263411	1
H	1.028637	-1.179569	-1.542801	1
H	-0.117153	-1.452309	1.358369	1
Es	1.391661	0.521181	0.177309	99
Es	1.169496	-1.360986	-0.482412	99
Es	-2.287754	-0.123857	-0.045230	99
Es	-0.578150	1.965431	-0.448619	99
Es	-0.582148	0.877717	0.229990	99
Es	-0.243428	1.351336	-0.223127	99
Es	1.071073	-1.237413	-1.182254	99
Es	1.606441	1.393841	-0.656241	99
Es	0.509992	1.335261	-0.132432	99
Es	-0.508823	0.686141	-0.402625	99
Es	-2.394667	-0.812000	-0.321180	99
Es	0.123299	-0.869271	0.479124	99
Es	0.478857	-1.235913	-0.077527	99
Es	1.246709	1.241836	-0.023400	99
Es	1.491433	-2.002730	-0.332245	99
Es	1.945267	-0.282643	0.952791	99
Es	1.521663	-0.736260	-0.123447	99
Es	0.771167	-0.461887	0.596446	99
Es	-0.833372	0.174445	0.062406	99
Es	-0.369877	-0.385449	0.255632	99
Es	1.478289	-0.190118	0.415440	99
Es	-1.563293	0.027396	0.009256	99
Es	-2.625240	0.352959	-0.480818	99
Es	1.470146	1.714992	0.506514	99
Es	-2.595744	-0.084699	0.618917	99
Es	-0.056029	-1.281490	1.065462	99
43
Properties=species:S:1:pos:R:3:Z:I:1 energy=-270.935757702631 field_type=dipole dipole="0.000000 0.000000 0.000000" charge=0
C	-2.287783	-0.123859	-0.045241	6
C	-0.833293	0.174581	0.062369	6
C	-0.243503	1.351241	-0.223091	6
C	1.246737	1.241861	-0.023401	6
C	1.478387	-0.190009	0.415519	6
C	1.169557	-1.361109	-0.482551	6
C	0.123157	-0.869279	0.479209	6
H	-2.446523	-1.129199	-0.452831	1
H	-2.793843	0.585011	-0.705261	1
H	-2.758753	-0.074909	0.942759	1
H	-0.746453	2.246941	-0.555501	1
H	1.783907	1.457241	-0.951331	1
H	1.574757	1.939401	0.753159	1
H	2.172267	-0.308719	1.234039	1
H	1.649897	-2.307319	-0.263411	1
H	1.028637	-1.179569	-1.542801	1
H	-0.117153	-1.452309	1.358369	1
Es	1.169492	-1.360988	-0.482413	99
Es	1.944096	-0.282657	0.951526	99
Es	-0.056313	-1.281781	1.065327	99
Es	1.522321	-0.735613	-0.123711	99
Es	1.246708	1.241835	-0.023398	99
Es	1.491326	-2.002891	-0.332533	99
Es	-0.582079	0.877676	0.229968	99
Es	-0.369403	-0.385647	0.255684	99
Es	-2.595505	-0.084332	0.618518	99
Es	1.071071	-1.237615	-1.180936	99
Es	-2.287753	-0.123857	-0.045231	99
Es	-2.395073	-0.812320	-0.320994	99
Es	-0.508754	0.686172	-0.402759	99
Es	-0.833370	0.174445	0.062399	99
Es	0.771313	-0.462099	0.596626	99
Es	1.478289	-0.190120	0.415445	99
Es	1.606452	1.393888	-0.656281	99
Es	0.123301	-0.869272	0.479124	99
Es	0.478181	-1.235547	-0.077663	99
Es	-0.243424	1.351333	-0.223124	99
Es	-2.625045	0.352303	-0.480205	99
Es	-0.578154	1.965433	-0.448460	99
Es	1.470034	1.715025	0.506459	99
Es	-1.563310	0.027788	0.008938	99
Es	1.392157	0.521265	0.177892	99
Es	0.510411	1.335393	-0.132466	99
43
Properties=species:S:1:pos:R:3:Z:I:1 energy=-270.935757702631 field_type=dipole dipole="0.000000 0.000000 0.000000" charge=0
C	-2.287783	-0.123859	-0.045241	6
C	-0.833293	0.174581	0.062369	6
C	-0.243503	1.351241	-0.223091	6
C	1.246737	1.241861	-0.023401	6
C	1.478387	-0.190009	0.415519	6
C	1.169557	-1.361109	-0.482551	6
C	0.123157	-0.869279	0.479209	6
H	-2.446523	-1.129199	-0.452831	1
H	-2.793843	0.585011	-0.705261	1
H	-2.758753	-0.074909	0.942759	1
H	-0.746453	2.246941	-0.555501	1
H	1.783907	1.457241	-0.951331	1
H	1.574757	1.939401	0.753159	1
H	2.172267	-0.308719	1.234039	1
H	1.649897	-2.307319	-0.263411	1
H	1.028637	-1.179569	-1.542801	1
H	-0.117153	-1.452309	1.358369	1
Es	0.771370	-0.461932	0.596832	99
Es	1.070956	-1.237743	-1.179567	99
Es	-0.056654	-1.282110	1.065122	99
Es	-2.624888	0.351588	-0.479785	99
Es	1.943099	-0.282641	0.950545	99
Es	1.606464	1.394100	-0.656256	99
Es	1.392694	0.521211	0.178246	99
Es	1.469848	1.714975	0.506510	99
Es	-2.287753	-0.123856	-0.045231	99
Es	-1.563267	0.028224	0.008768	99
Es	-0.833369	0.174445	0.062398	99
Es	1.491254	-2.003167	-0.332949	99
Es	-2.395275	-0.812557	-0.320710	99
Es	-0.368824	-0.385980	0.255603	99
Es	-2.595479	-0.084020	0.618122	99
Es	-0.243422	1.351330	-0.223127	99
Es	1.246708	1.241836	-0.023398	99
Es	-0.508682	0.686115	-0.402778	99
Es	0.510684	1.335551	-0.132429	99
Es	1.478292	-0.190118	0.415443	99
Es	-0.581987	0.877676	0.230012	99
Es	0.123305	-0.869266	0.479128	99
Es	1.169496	-1.360983	-0.482413	99
Es	-0.578191	1.965417	-0.448553	99
Es	1.522790	-0.735153	-0.124118	99
Es	0.477801	-1.235125	-0.077683	99
43
Properties=species:S:1:pos:R:3:Z:I:1 energy=-270.935757702631 field_type=dipole dipole="0.000000 0.000000 0.000000" charge=0
C	-2.287783	-0.123859	-0.045241	6
C	-0.833293	0.174581	0.062369	6
C	-0.243503	1.351241	-0.223091	6
C	1.246737	1.241861	-0.023401	6
C	1.478387	-0.190009	0.415519	6
C	1.169557	-1.361109	-0.482551	6
C	0.123157	-0.869279	0.479209	6
H	-2.446523	-1.129199	-0.452831	1
H	-2.793843	0.585011	-0.705261	1
H	-2.758753	-0.074909	0.942759	1
H	-0.746453	2.246941	-0.555501	1
H	1.783907	1.457241	-0.951331	1
H	1.574757	1.939401	0.753159	1
H	2.172267	-0.308719	1.234039	1
H	1.649897	-2.307319	-0.263411	1
H	1.028637	-1.179569	-1.542801	1
H	-0.117153	-1.452309	1.358369	1
Es	-0.581773	0.877683	0.230009	99
Es	-2.395454	-0.812739	-0.320623	99
Es	1.491183	-2.003338	-0.333245	99
Es	-2.287755	-0.123857	-0.045232	99
Es	-0.368512	-0.386054	0.255504	99
Es	-0.833369	0.174444	0.062398	99
Es	1.942328	-0.282626	0.949725	99
Es	0.771346	-0.462199	0.596967	99
Es	0.477564	-1.234793	-0.077602	99
Es	1.606399	1.394133	-0.656335	99
Es	1.523319	-0.734606	-0.124393	99
Es	-0.508794	0.686129	-0.402926	99
Es	1.478287	-0.190106	0.415433	99
Es	0.511070	1.335595	-0.132423	99
Es	-0.578180	1.965466	-0.448363	99
Es	-0.056962	-1.282293	1.064948	99
Es	-0.243423	1.351336	-0.223124	99
Es	1.070870	-1.237893	-1.178428	99
Es	1.246707	1.241838	-0.023399	99
Es	1.169495	-1.360988	-0.482407	99
Es	0.123306	-0.869263	0.479131	99
Es	-2.624664	0.351079	-0.479410	99
Es	-1.563301	0.028384	0.008591	99
Es	-2.595450	-0.083754	0.617910	99
Es	1.469812	1.715002	0.506433	99
Es	1.392922	0.521238	0.178596	99
43
Properties=species:S:1:pos:R:3:Z:I:1 energy=-270.935757702631 field_type=dipole dipole="0.000000 0.000000 0.000000" charge=0
C	-2.287783	-0.123859	-0.045241	6
C	-0.833293	0.174581	0.062369	6
C	-0.243503	1.351241	-0.223091	6
C	1.246737	1.241861	-0.023401	6
C	1.478387	-0.190009	0.415519	6
C	1.169557	-1.361109	-0.482551	6
C	0.123157	-0.869279	0.479209	6
H	-2.446523	-1.129199	-0.452831	1
H	-2.793843	0.585011	-0.705261	1
H	-2.758753	-0.074909	0.942759	1
H	-0.746453	2.246941	-0.555501	1
H	1.783907	1.457241	-0.951331	1
H	1.574757	1.939401	0.753159	1
H	2.172267	-0.308719	1.234039	1
H	1.649897	-2.307319	-0.263411	1
H	1.028637	-1.179569	-1.542801	1
H	-0.117153	-1.452309	1.358369	1
Es	1.070838	-1.237950	-1.177490	99
Es	0.771556	-0.462381	0.596898	99
Es	-0.508656	0.686165	-0.402984	99
Es	-0.578160	1.965520	-0.448315	99
Es	1.523553	-0.734227	-0.124683	99
Es	1.478285	-0.190110	0.415433	99
Es	1.491127	-2.003515	-0.333522	99
Es	-0.368214	-0.385980	0.255686	99
Es	-2.624582	0.350571	-0.479050	99
Es	-0.243423	1.351332	-0.223125	99
Es	1.169502	-1.360986	-0.482416	99
Es	-1.563333	0.028685	0.008292	99
Es	1.606334	1.394215	-0.656333	99
Es	1.246708	1.241835	-0.023398	99
Es	0.477066	-1.234402	-0.077734	99
Es	1.393488	0.521265	0.179124	99
Es	0.511246	1.335533	-0.132474	99
Es	-0.833369	0.174445	0.062398	99
Es	1.469716	1.715047	0.506378	99
Es	-2.287754	-0.123858	-0.045231	99
Es	0.123309	-0.869266	0.479125	99
Es	1.941570	-0.282668	0.948989	99
Es	-0.057135	-1.282616	1.064808	99
Es	-2.395690	-0.812975	-0.320318	99
Es	-0.581768	0.877622	0.230064	99
Es	-2.595247	-0.083485	0.617609	99
43
Properties=species:S:1:pos:R:3:Z:I:1 energy=-270.935757702631 field_type=dipole dipole="0.000000 0.000000 0.000000" charge=0
C	-2.287783	-0.123859	-0.045241	6
C	-0.833293	0.174581	0.062369	6
C	-0.243503	1.351241	-0.223091	6
C	1.246737	1.241861	-0.023401	6
C	1.478387	-0.190009	0.415519	6
C	1.169557	-1.361109	-0.482551	6
C	0.123157	-0.869279	0.479209	6
H	-2.446523	-1.129199	-0.452831	1
H	-2.793843	0.585011	-0.705261	1
H	-2.758753	-0.074909	0.942759	1
H	-0.746453	2.246941	-0.555501	1
H	1.783907	1.457241	-0.951331	1
H	1.574757	1.939401	0.753159	1
H	2.172267	-0.308719	1.234039	1
H	1.649897	-2.307319	-0.263411	1
H	1.028637	-1.179569	-1.542801	1
H	-0.117153	-1.452309	1.358369	1
Es	-2.624565	0.350294	-0.478637	99
Es	0.476815	-1.234063	-0.077673	99
Es	-2.595078	-0.083518	0.617381	99
Es	1.606422	1.394290	-0.656389	99
Es	1.469656	1.714946	0.506382	99
Es	1.523946	-0.733984	-0.124944	99
Es	-0.833369	0.174445	0.062400	99
Es	-2.395831	-0.813077	-0.320326	99
Es	-2.287753	-0.123857	-0.045231	99
Es	-0.578138	1.965585	-0.448246	99
Es	-0.367842	-0.386486	0.255606	99
Es	0.771483	-0.462150	0.597098	99
Es	-1.563369	0.029079	0.008138	99
Es	-0.243423	1.351332	-0.223125	99
Es	1.940936	-0.282592	0.948286	99
Es	1.478300	-0.190123	0.415452	99
Es	1.393649	0.521222	0.179326	99
Es	1.169497	-1.360989	-0.482408	99
Es	0.511381	1.335646	-0.132438	99
Es	1.246709	1.241837	-0.023401	99
Es	-0.581603	0.877624	0.230066	99
Es	-0.508705	0.686132	-0.403050	99
Es	-0.057310	-1.282783	1.064684	99
Es	1.491019	-2.003676	-0.333733	99
Es	0.123305	-0.869266	0.479129	99
Es	1.070838	-1.238049	-1.176616	99
43
Properties=species:S:1:pos:R:3:Z:I:1 energy=-270.935757702631 field_type=dipole dipole="0.000000 0.000000 0.000000" charge=0
C	-2.287783	-0.123859	-0.045241	6
C	-0.833293	0.174581	0.062369	6
C	-0.243503	1.351241	-0.223091	6
C	1.246737	1.241861	-0.023401	6
C	1.478387	-0.190009	0.415519	6
C	1.169557	-1.361109	-0.482551	6
C	0.123157	-0.869279	0.479209	6
H	-2.446523	-1.129199	-0.452831	1
H	-2.793843	0.585011	-0.705261	1
H	-2.758753	-0.074909	0.942759	1
H	-0.746453	2.246941	-0.555501	1
H	1.783907	1.457241	-0.951331	1
H	1.574757	1.939401	0.753159	1
H	2.172267	-0.308719	1.234039	1
H	1.649897	-2.307319	-0.263411	1
H	1.028637	-1.179569	-1.542801	1
H	-0.117153	-1.452309	1.358369	1
Es	-1.563406	0.029442	0.007813	99
Es	1.490896	-2.003904	-0.333897	99
Es	-0.508600	0.686190	-0.403037	99
Es	0.511548	1.335550	-0.132555	99
Es	-0.833369	0.174444	0.062398	99
Es	1.169485	-1.360981	-0.482418	99
Es	0.123301	-0.869267	0.479124	99
Es	0.476687	-1.233700	-0.077756	99
Es	-0.578068	1.965643	-0.448249	99
Es	-0.581643	0.877588	0.230119	99
Es	-0.057430	-1.283021	1.064548	99
Es	-2.287757	-0.123856	-0.045234	99
Es	1.478293	-0.190104	0.415445	99
Es	1.524108	-0.733692	-0.125108	99
Es	-2.395972	-0.813150	-0.320289	99
Es	1.940369	-0.282608	0.947736	99
Es	-2.594941	-0.083486	0.617247	99
Es	1.246706	1.241834	-0.023398	99
Es	-0.243421	1.351334	-0.223128	99
Es	-0.367684	-0.386500	0.255702	99
Es	-2.624518	0.349884	-0.478193	99
Es	0.771549	-0.462195	0.597089	99
Es	1.394054	0.521201	0.179659	99
Es	1.606426	1.394319	-0.656344	99
Es	1.070788	-1.238142	-1.175856	99
Es	1.469565	1.714991	0.506314	99
43
Properties=species:S:1:pos:R:3:Z:I:1 energy=-270.935757702631 field_type=dipole dipole="0.000000 0.000000 0.000000" charge=0
C	-2.287783	-0.123859	-0.045241	6
C	-0.833293	0.174581	0.062369	6
C	-0.243503	1.351241	-0.223091	6
C	1.246737	1.241861	-0.023401	6
C	1.478387	-0.190009	0.415519	6
C	1.169557	-1.361109	-0.482551	6
C	0.123157	-0.869279	0.479209	6
H	-2.446523	-1.129199	-0.452831	1
H	-2.793843	0.585011	-0.705261	1
H	-2.758753	-0.074909	0.942759	1
H	-0.746453	2.246941	-0.555501	1
H	1.783907	1.457241	-0.951331	1
H	1.574757	1.939401	0.753159	1
H	2.172267	-0.308719	1.234039	1
H	1.649897	-2.307319	-0.263411	1
H	1.028637	-1.179569	-1.542801	1
H	-0.117153	-1.452309	1.358369	1
Es	-0.581564	0.877587	0.230064	99
Es	1.939961	-0.282552	0.947263	99
Es	0.511862	1.335518	-0.132517	99
Es	-0.833368	0.174444	0.062398	99
Es	-2.287754	-0.123858	-0.045231	99
Es	-2.396143	-0.813302	-0.320002	99
Es	1.169495	-1.360990	-0.482410	99
Es	0.771654	-0.462229	0.597237	99
Es	-0.057775	-1.283076	1.064426	99
Es	0.123310	-0.869263	0.479128	99
Es	1.490988	-2.003896	-0.334143	99
Es	1.394098	0.521151	0.179745	99
Es	1.606426	1.394444	-0.656361	99
Es	-0.508657	0.686186	-0.403092	99
Es	1.524247	-0.733408	-0.125256	99
Es	-2.624430	0.349666	-0.478147	99
Es	-1.563410	0.029512	0.007705	99
Es	-2.594848	-0.083232	0.617051	99
Es	1.070852	-1.238169	-1.175091	99
Es	0.476306	-1.233685	-0.077826	99
Es	-0.578031	1.965685	-0.448195	99
Es	1.478298	-0.190121	0.415448	99
Es	-0.243430	1.351340	-0.223125	99
Es	1.246707	1.241835	-0.023398	99
Es	1.469416	1.714994	0.506400	99
Es	-0.367243	-0.386766	0.255660	99
43
Properties=species:S:1:pos:R:3:Z:I:1 energy=-270.935757702631 field_type=dipole dipole="0.000000 0.000000 0.000000" charge=0
C	-2.287783	-0.123859	-0.045241	6
C	-0.833293	0.174581	0.062369	6
C	-0.243503	1.351241	-0.223091	6
C	1.246737	1.241861	-0.023401	6
C	1.478387	-0.190009	0.415519	6
C	1.169557	-1.361109	-0.482551	6
C	0.123157	-0.869279	0.479209	6
H	-2.446523	-1.129199	-0.452831	1
H	-2.793843	0.585011	-0.705261	1
H	-2.758753	-0.074909	0.942759	1
H	-0.746453	2.246941	-0.555501	1
H	1.783907	1.457241	-0.951331	1
H	1.574757	1.939401	0.753159	1
H	2.172267	-0.308719	1.234039	1
H	1.649897	-2.307319	-0.263411	1
H	1.028637	-1.179569	-1.542801	1
H	-0.117153	-1.452309	1.358369	1
Es	1.246708	1.241836	-0.023398	99
Es	-2.594803	-0.083125	0.616824	99
Es	1.070825	-1.238211	-1.174624	99
Es	-0.243423	1.351335	-0.223120	99
Es	0.476176	-1.233355	-0.077656	99
Es	-0.833369	0.174444	0.062398	99
Es	-1.563446	0.029660	0.007627	99
Es	1.939310	-0.282471	0.946771	99
Es	1.524517	-0.733443	-0.125407	99
Es	-0.578156	1.965642	-0.448221	99
Es	0.771679	-0.462030	0.597362	99
Es	0.511928	1.335690	-0.132455	99
Es	1.169502	-1.360992	-0.482411	99
Es	1.394455	0.521121	0.179959	99
Es	1.469474	1.715026	0.506330	99
Es	-2.624324	0.349335	-0.477870	99
Es	-2.287753	-0.123857	-0.045231	99
Es	-0.581426	0.877587	0.229983	99
Es	-2.396271	-0.813405	-0.319908	99
Es	-0.508640	0.686122	-0.403033	99
Es	-0.057716	-1.283408	1.064282	99
Es	1.490969	-2.003955	-0.334300	99
Es	-0.367141	-0.386787	0.255661	99
Es	0.123303	-0.869268	0.479126	99
Es	1.606313	1.394444	-0.656391	99
Es	1.478275	-0.190118	0.415436	99
43
Properties=species:S:1:pos:R:3:Z:I:1 energy=-270.935757702631 field_type=dipole dipole="0.000000 0.000000 0.000000" charge=0
C	-2.287783	-0.123859	-0.045241	6
C	-0.833293	0.174581	0.062369	6
C	-0.243503	1.351241	-0.223091	6
C	1.246737	1.241861	-0.023401	6
C	1.478387	-0.190009	0.415519	6
C	1.169557	-1.361109	-0.482551	6
C	0.123157	-0.869279	0.479209	6
H	-2.446523	-1.129199	-0.452831	1
H	-2.793843	0.585011	-0.705261	1
H	-2.758753	-0.074909	0.942759	1
H	-0.746453	2.246941	-0.555501	1
H	1.783907	1.457241	-0.951331	1
H	1.574757	1.939401	0.753159	1
H	2.172267	-0.308719	1.234039	1
H	1.649897	-2.307319	-0.263411	1
H	1.028637	-1.179569	-1.542801	1
H	-0.117153	-1.452309	1.358369	1
Es	-1.563441	0.029746	0.007536	99
Es	-0.057809	-1.283385	1.064286	99
Es	1.478287	-0.190116	0.415432	99
Es	1.394356	0.521016	0.180113	99
Es	1.246709	1.241836	-0.023397	99
Es	-0.508640	0.686185	-0.403055	99
Es	1.169495	-1.360986	-0.482407	99
Es	-0.578020	1.965693	-0.448247	99
Es	-2.287754	-0.123858	-0.045231	99
Es	1.469235	1.714898	0.506377	99
Es	1.490809	-2.004179	-0.334464	99
Es	-0.581511	0.877618	0.230074	99
Es	1.524726	-0.733105	-0.125747	99
Es	-0.366938	-0.386979	0.255630	99
Es	0.123305	-0.869267	0.479128	99
Es	-0.833367	0.174444	0.062398	99
Es	-2.594730	-0.083006	0.616675	99
Es	-0.243422	1.351332	-0.223127	99
Es	1.939118	-0.282478	0.946426	99
Es	-2.624249	0.349162	-0.477739	99
Es	-2.396383	-0.813506	-0.319794	99
Es	0.512215	1.335680	-0.132568	99
Es	0.771558	-0.462040	0.597368	99
Es	0.476068	-1.233147	-0.077758	99
Es	1.070755	-1.238300	-1.173856	99
Es	1.606595	1.394560	-0.656319	99
43
Properties=species:S:1:pos:R:3:Z:I:1 energy=-270.935757702631 field_type=dipole dipole="0.000000 0.000000 0.000000" charge=0
C	-2.287783	-0.123859	-0.045241	6
C	-0.833293	0.174581	0.062369	6
C	-0.243503	1.351241	-0.223091	6
C	1.246737	1.241861	-0.023401	6
C	1.478387	-0.190009	0.415519	6
C	1.169557	-1.361109	-0.482551	6
C	0.123157	-0.869279	0.479209	6
H	-2.446523	-1.129199	-0.452831	1
H	-2.793843	0.585011	-0.705261	1
H	-2.758753	-0.074909	0.942759	1
H	-0.746453	2.246941	-0.555501	1
H	1.783907	1.457241	-0.951331	1
H	1.574757	1.939401	0.753159	1
H	2.172267	-0.308719	1.234039	1
H	1.649897	-2.307319	-0.263411	1
H	1.028637	-1.179569	-1.542801	1
H	-0.117153	-1.452309	1.358369	1
Es	-2.287755	-0.123858	-0.045231	99
Es	0.512244	1.335612	-0.132349	99
Es	1.469279	1.715047	0.506315	99
Es	0.771579	-0.462231	0.597420	99
Es	-0.367085	-0.387032	0.255567	99
Es	-2.624136	0.348891	-0.477500	99
Es	1.394752	0.521057	0.180494	99
Es	1.938539	-0.282431	0.945878	99
Es	-0.578047	1.965771	-0.448212	99
Es	1.490812	-2.004088	-0.334501	99
Es	-1.563452	0.029946	0.007332	99
Es	1.246708	1.241836	-0.023398	99
Es	-2.594741	-0.082957	0.616614	99
Es	-0.057818	-1.283603	1.064127	99
Es	-0.508447	0.686081	-0.403169	99
Es	1.169497	-1.360987	-0.482405	99
Es	1.478295	-0.190115	0.415439	99
Es	0.123291	-0.869274	0.479125	99
Es	1.070779	-1.238377	-1.173524	99
Es	-0.243424	1.351333	-0.223124	99
Es	-0.581441	0.877585	0.230036	99
Es	0.476039	-1.233051	-0.077573	99
Es	-0.833370	0.174445	0.062398	99
Es	-2.396476	-0.813507	-0.319799	99
Es	1.525021	-0.732835	-0.125794	99
Es	1.606323	1.394558	-0.656435	99
43
Properties=species:S:1:pos:R:3:Z:I:1 energy=-270.935757702631 field_type=dipole dipole="0.000000 0.000000 0.000000" charge=0
C	-2.287783	-0.123859	-0.045241	6
C	-0.833293	0.174581	0.062369	6
C	-0.243503	1.351241	-0.223091	6
C	1.246737	1.241861	-0.023401	6
C	1.478387	-0.190009	0.415519	6
C	1.169557	-1.361109	-0.482551	6
C	0.123157	-0.869279	0.479209	6
H	-2.446523	-1.129199	-0.452831	1
H	-2.793843	0.585011	-0.705261	1
H	-2.758753	-0.074909	0.942759	1
H	-0.746453	2.246941	-0.555501	1
H	1.783907	1.457241	-0.951331	1
H	1.574757	1.939401	0.753159	1
H	2.172267	-0.308719	1.234039	1
H	1.649897	-2.307319	-0.263411	1
H	1.028637	-1.179569	-1.542801	1
H	-0.117153	-1.452309	1.358369	1
Es	0.771737	-0.462312	0.597322	99
Es	1.478289	-0.190107	0.415432	99
Es	1.525050	-0.732732	-0.126046	99
Es	1.169499	-1.360991	-0.482411	99
Es	1.606408	1.394485	-0.656391	99
Es	-0.058033	-1.283719	1.064032	99
Es	0.512300	1.335601	-0.132560	99
Es	-2.396439	-0.813696	-0.319624	99
Es	0.123304	-0.869266	0.479127	99
Es	1.070820	-1.238410	-1.173013	99
Es	-1.563526	0.030198	0.007462	99
Es	-2.594511	-0.082998	0.616378	99
Es	1.469256	1.715085	0.506322	99
Es	-0.508551	0.686139	-0.403406	99
Es	0.475631	-1.232719	-0.077619	99
Es	-0.578007	1.965793	-0.448076	99
Es	-2.287748	-0.123853	-0.045231	99
Es	1.394680	0.521098	0.180591	99
Es	1.938470	-0.282451	0.945741	99
Es	1.246708	1.241835	-0.023398	99
Es	-0.833370	0.174445	0.062399	99
Es	1.490803	-2.004212	-0.334591	99
Es	-0.243421	1.351330	-0.223125	99
Es	-2.624271	0.348753	-0.477333	99
Es	-0.366764	-0.387014	0.255600	99
Es	-0.581347	0.877534	0.230151	99
43
Properties=species:S:1:pos:R:3:Z:I:1 energy=-270.935757702631 field_type=dipole dipole="0.000000 0.000000 0.000000" charge=0
C	-2.287783	-0.123859	-0.045241	6
C	-0.833293	0.174581	0.062369	6
C	-0.243503	1.351241	-0.223091	6
C	1.246737	1.241861	-0.023401	6
C	1.478387	-0.190009	0.415519	6
C	1.169557	-1.361109	-0.482551	6
C	0.123157	-0.869279	0.479209	6
H	-2.446523	-1.129199	-0.452831	1
H	-2.793843	0.585011	-0.705261	1
H	-2.758753	-0.074909	0.942759	1
H	-0.746453	2.246941	-0.555501	1
H	1.783907	1.457241	-0.951331	1
H	1.574757	1.939401	0.753159	1
H	2.172267	-0.308719	1.234039	1
H	1.649897	-2.307319	-0.263411	1
H	1.028637	-1.179569	-1.542801	1
H	-0.117153	-1.452309	1.358369	1
Es	1.490744	-2.004292	-0.334749	99
Es	1.469172	1.715075	0.506386	99
Es	1.169500	-1.360992	-0.482425	99
Es	0.771635	-0.462127	0.597233	99
Es	1.070718	-1.238468	-1.172448	99
Es	1.606389	1.394588	-0.656373	99
Es	-0.366542	-0.387206	0.255714	99
Es	-2.287756	-0.123857	-0.045233	99
Es	-2.624107	0.348464	-0.477225	99
Es	1.246708	1.241836	-0.023398	99
Es	-0.508485	0.686135	-0.403086	99
Es	-0.833370	0.174445	0.062397	99
Es	-0.243423	1.351333	-0.223125	99
Es	-0.057976	-1.283698	1.064160	99
Es	0.475616	-1.232768	-0.077667	99
Es	1.938032	-0.282404	0.945433	99
Es	-0.581385	0.877562	0.229965	99
Es	-2.396503	-0.813699	-0.319555	99
Es	1.478283	-0.190110	0.415432	99
Es	-1.563559	0.030270	0.007230	99
Es	0.512484	1.335596	-0.132558	99
Es	1.394941	0.520990	0.180675	99
Es	0.123304	-0.869268	0.479127	99
Es	1.525240	-0.732544	-0.126263	99
Es	-2.594633	-0.082859	0.616309	99
Es	-0.578061	1.965817	-0.448220	99
43
Properties=species:S:1:pos:R:3:Z:I:1 energy=-270.935757702631 field_type=dipole dipole="0.000000 0.000000 0.000000" charge=0
C	-2.287783	-0.123859	-0.045241	6
C	-0.833293	0.174581	0.062369	6
C	-0.243503	1.351241	-0.223091	6
C	1.246737	1.241861	-0.023401	6
C	1.478387	-0.190009	0.415519	6
C	1.169557	-1.361109	-0.482551	6
C	0.123157	-0.869279	0.479209	6
H	-2.446523	-1.129199	-0.452831	1
H	-2.793843	0.585011	-0.705261	1
H	-2.758753	-0.074909	0.942759	1
H	-0.746453	2.246941	-0.555501	1
H	1.783907	1.457241	-0.951331	1
H	1.574757	1.939401	0.753159	1
H	2.172267	-0.308719	1.234039	1
H	1.649897	-2.307319	-0.263411	1
H	1.028637	-1.179569	-1.542801	1
H	-0.117153	-1.452309	1.358369	1
Es	-0.833370	0.174445	0.062397	99
Es	-0.243422	1.351332	-0.223125	99
Es	0.475622	-1.232482	-0.077471	99
Es	1.606267	1.394626	-0.656328	99
Es	-2.594523	-0.082840	0.616239	99
Es	-2.624060	0.348426	-0.477065	99
Es	1.937710	-0.282389	0.945080	99
Es	-0.508489	0.686144	-0.403171	99
Es	1.246708	1.241836	-0.023398	99
Es	1.490711	-2.004362	-0.334866	99
Es	-0.366416	-0.387253	0.255632	99
Es	-2.287752	-0.123858	-0.045231	99
Es	-2.396642	-0.813733	-0.319582	99
Es	-0.578081	1.965802	-0.448132	99
Es	0.512557	1.335660	-0.132612	99
Es	-0.058204	-1.283874	1.063940	99
Es	1.070718	-1.238460	-1.172257	99
Es	0.123305	-0.869264	0.479132	99
Es	1.525336	-0.732455	-0.126200	99
Es	1.469225	1.715090	0.506307	99
Es	1.395192	0.520922	0.180848	99
Es	-1.563559	0.030282	0.007216	99
Es	1.169501	-1.360991	-0.482422	99
Es	1.478285	-0.190108	0.415432	99
Es	0.771623	-0.462225	0.597330	99
Es	-0.581271	0.877550	0.230042	99
43
Properties=species:S:1:pos:R:3:Z:I:1 energy=-270.935757702631 field_type=dipole dipole="0.000000 0.000000 0.000000" charge=0
C	-2.287783	-0.123859	-0.045241	6
C	-0.833293	0.174581	0.062369	6
C	-0.243503	1.351241	-0.223091	6
C	1.246737	1.241861	-0.023401	6
C	1.478387	-0.190009	0.415519	6
C	1.169557	-1.361109	-0.482551	6
C	0.123157	-0.869279	0.479209	6
H	-2.446523	-1.129199	-0.452831	1
H	-2.793843	0.585011	-0.705261	1
H	-2.758753	-0.074909	0.942759	1
H	-0.746453	2.246941	-0.555501	1
H	1.783907	1.457241	-0.951331	1
H	1.574757	1.939401	0.753159	1
H	2.172267	-0.308719	1.234039	1
H	1.649897	-2.307319	-0.263411	1
H	1.028637	-1.179569	-1.542801	1
H	-0.117153	-1.452309	1.358369	1
Es	0.512590	1.335628	-0.132615	99
Es	1.606359	1.394621	-0.656350	99
Es	1.490634	-2.004446	-0.334945	99
Es	-0.243424	1.351333	-0.223120	99
Es	0.123321	-0.869260	0.479127	99
Es	-0.577998	1.965816	-0.448187	99
Es	1.169500	-1.360988	-0.482408	99
Es	0.475555	-1.232288	-0.077476	99
Es	-2.287754	-0.123858	-0.045231	99
Es	-0.058215	-1.284039	1.063847	99
Es	-0.581218	0.877640	0.230152	99
Es	1.478298	-0.190103	0.415449	99
Es	1.395299	0.520961	0.181043	99
Es	-2.624031	0.348183	-0.476966	99
Es	-0.833370	0.174445	0.062399	99
Es	1.937412	-0.282375	0.944786	99
Es	-1.563584	0.030535	0.007131	99
Es	1.246708	1.241835	-0.023397	99
Es	-0.508654	0.686111	-0.403221	99
Es	-2.396548	-0.813766	-0.319531	99
Es	-0.366351	-0.387343	0.255632	99
Es	0.771718	-0.462215	0.597342	99
Es	1.525434	-0.732305	-0.126382	99
Es	-2.594595	-0.082832	0.616167	99
Es	1.469176	1.715057	0.506305	99
Es	1.070706	-1.238528	-1.171820	99
43
Properties=species:S:1:pos:R:3:Z:I:1 energy=-270.935757702631 field_type=dipole dipole="0.000000 0.000000 0.000000" charge=0
C	-2.287783	-0.123859	-0.045241	6
C	-0.833293	0.174581	0.062369	6
C	-0.243503	1.351241	-0.223091	6
C	1.246737	1.241861	-0.023401	6
C	1.478387	-0.190009	0.415519	6
C	1.169557	-1.361109	-0.482551	6
C	0.123157	-0.869279	0.479209	6
H	-2.446523	-1.129199	-0.452831	1
H	-2.793843	0.585011	-0.705261	1
H	-2.758753	-0.074909	0.942759	1
H	-0.746453	2.246941	-0.555501	1
H	1.783907	1.457241	-0.951331	1
H	1.574757	1.939401	0.753159	1
H	2.172267	-0.308719	1.234039	1
H	1.649897	-2.307319	-0.263411	1
H	1.028637	-1.179569	-1.542801	1
H	-0.117153	-1.452309	1.358369	1
Es	1.606258	1.394666	-0.656261	99
Es	-0.578035	1.965906	-0.448207	99
Es	-0.058296	-1.284004	1.063864	99
Es	1.395348	0.520810	0.181015	99
Es	-0.508602	0.686049	-0.403162	99
Es	0.475237	-1.232140	-0.077360	99
Es	-0.243421	1.351331	-0.223129	99
Es	0.123305	-0.869266	0.479129	99
Es	-2.624038	0.348073	-0.476860	99
Es	1.525677	-0.732444	-0.126656	99
Es	0.512760	1.335613	-0.132623	99
Es	-1.563635	0.030633	0.007030	99
Es	1.937244	-0.282339	0.944589	99
Es	1.169495	-1.360986	-0.482409	99
Es	1.490630	-2.004417	-0.335035	99
Es	1.246708	1.241835	-0.023397	99
Es	1.469133	1.715143	0.506331	99
Es	-0.581055	0.877592	0.230039	99
Es	-0.833370	0.174445	0.062399	99
Es	0.771674	-0.462094	0.597398	99
Es	1.070699	-1.238559	-1.171554	99
Es	-0.366148	-0.387461	0.255716	99
Es	-2.396715	-0.813866	-0.319315	99
Es	-2.594416	-0.082738	0.615990	99
Es	1.478283	-0.190110	0.415431	99
Es	-2.287753	-0.123857	-0.045231	99
43
Properties=species:S:1:pos:R:3:Z:I:1 energy=-270.935757702631 field_type=dipole dipole="0.000000 0.000000 0.000000" charge=0
C	-2.287783	-0.123859	-0.045241	6
C	-0.833293	0.174581	0.062369	6
C	-0.243503	1.351241	-0.223091	6
C	1.246737	1.241861	-0.023401	6
C	1.478387	-0.190009	0.415519	6
C	1.169557	-1.361109	-0.482551	6
C	0.123157	-0.869279	0.479209	6
H	-2.446523	-1.129199	-0.452831	1
H	-2.793843	0.585011	-0.705261	1
H	-2.758753	-0.074909	0.942759	1
H	-0.746453	2.246941	-0.555501	1
H	1.783907	1.457241	-0.951331	1
H	1.574757	1.939401	0.753159	1
H	2.172267	-0.308719	1.234039	1
H	1.649897	-2.307319	-0.263411	1
H	1.028637	-1.179569	-1.542801	1
H	-0.117153	-1.452309	1.358369	1
Es	1.169501	-1.360993	-0.482425	99
Es	-2.594427	-0.082755	0.615987	99
Es	-0.833370	0.174445	0.062397	99
Es	-0.366247	-0.387424	0.255535	99
Es	0.475132	-1.232091	-0.077305	99
Es	1.478311	-0.190123	0.415454	99
Es	-1.563675	0.030726	0.007048	99
Es	1.606283	1.394628	-0.656453	99
Es	1.395256	0.520926	0.181209	99
Es	-0.243423	1.351332	-0.223125	99
Es	-0.577958	1.965920	-0.448110	99
Es	0.123301	-0.869267	0.479124	99
Es	1.936920	-0.282264	0.944385	99
Es	1.070766	-1.238553	-1.171231	99
Es	-2.287753	-0.123858	-0.045231	99
Es	-0.508468	0.686167	-0.403238	99
Es	1.490699	-2.004472	-0.335082	99
Es	0.772061	-0.462137	0.597281	99
Es	0.512858	1.335550	-0.132541	99
Es	-2.396661	-0.813889	-0.319340	99
Es	1.246708	1.241835	-0.023398	99
Es	-0.581227	0.877488	0.230083	99
Es	-2.624030	0.348000	-0.476803	99
Es	-0.058330	-1.284252	1.063702	99
Es	1.525583	-0.732239	-0.126567	99
Es	1.469158	1.715117	0.506376	99
