48
Properties=species:S:1:pos:R:3:Z:I:1 energy=-289.3060198045893 field_type=dipole dipole="0.000000 0.000000 0.000000" charge=0
C	-1.368878	-0.723503	-1.592824	6
C	-1.430648	-0.089202	-0.230844	6
C	-2.218258	-0.583532	0.736896	6
C	-0.591828	1.151638	-0.014004	6
C	0.921552	0.930568	-0.124784	6
C	1.455742	-0.061522	0.907746	6
N	2.906672	-0.181632	0.786246	7
H	-1.606438	0.012868	-2.366944	1
H	-2.080568	-1.549773	-1.692204	1
H	-0.369138	-1.124952	-1.786544	1
H	-2.831028	-1.466372	0.578066	1
H	-2.277058	-0.118552	1.717486	1
H	-0.810518	1.591918	0.967736	1
H	-0.892998	1.905498	-0.752704	1
H	1.417862	1.900087	0.012316	1
H	1.176782	0.594068	-1.137214	1
H	1.007252	-1.050592	0.767836	1
H	1.210281	0.278568	1.919606	1
H	3.141342	-0.531802	-0.141874	1
H	3.239882	-0.883772	1.446006	1
Es	-1.526147	-0.218073	-2.109777	99
Es	-1.852402	-1.284067	-1.655098	99
Es	-1.368868	-0.723484	-1.592796	99
Es	0.152496	1.017885	-0.072781	99
Es	1.182442	0.431802	0.389498	99
Es	-0.689389	-0.988148	-1.716049	99
Es	-2.218298	-0.583588	0.736978	99
Es	0.921502	0.930542	-0.124771	99
Es	1.285732	0.173178	1.602018	99
Es	-2.087825	-0.156534	0.170210	99
Es	-1.594061	-0.537258	0.376285	99
Es	2.277801	-0.152021	0.832399	99
Es	3.093921	-0.621976	1.178915	99
Es	2.906404	-0.182157	0.786146	99
Es	-0.591816	1.151594	-0.014023	99
Es	-1.003936	0.519927	-0.123881	99
Es	3.070676	0.128547	0.841980	99
Es	1.136747	-0.741386	0.806732	99
Es	1.455885	-0.061507	0.907705	99
Es	-2.637623	-1.186028	0.632176	99
Es	-0.799586	1.655916	-0.523724	99
Es	-1.396126	-0.407688	-0.914232	99
Es	-0.740142	1.445024	0.660861	99
Es	-1.430558	-0.089151	-0.230963	99
Es	1.096136	0.689828	-0.818961	99
Es	-2.259598	-0.269869	1.407532	99
Es	3.031351	-0.411599	0.224600	99
Es	1.255177	1.590844	-0.028240	99
48
Properties=species:S:1:pos:R:3:Z:I:1 energy=-289.3060198045893 field_type=dipole dipole="0.000000 0.000000 0.000000" charge=0
C	-1.368878	-0.723503	-1.592824	6
C	-1.430648	-0.089202	-0.230844	6
C	-2.218258	-0.583532	0.736896	6
C	-0.591828	1.151638	-0.014004	6
C	0.921552	0.930568	-0.124784	6
C	1.455742	-0.061522	0.907746	6
N	2.906672	-0.181632	0.786246	7
H	-1.606438	0.012868	-2.366944	1
H	-2.080568	-1.549773	-1.692204	1
H	-0.369138	-1.124952	-1.786544	1
H	-2.831028	-1.466372	0.578066	1
H	-2.277058	-0.118552	1.717486	1
H	-0.810518	1.591918	0.967736	1
H	-0.892998	1.905498	-0.752704	1
H	1.417862	1.900087	0.012316	1
H	1.176782	0.594068	-1.137214	1
H	1.007252	-1.050592	0.767836	1
H	1.210281	0.278568	1.919606	1
H	3.141342	-0.531802	-0.141874	1
H	3.239882	-0.883772	1.446006	1
Es	-1.004002	0.520000	-0.124483	99
Es	-0.591817	1.151593	-0.014023	99
Es	-1.430557	-0.089150	-0.230965	99
Es	1.455885	-0.061507	0.907707	99
Es	-2.088501	-0.156311	0.169799	99
Es	0.152107	1.018049	-0.072681	99
Es	-1.852231	-1.284288	-1.654998	99
Es	1.137154	-0.740925	0.806460	99
Es	1.182312	0.431742	0.389618	99
Es	-0.690174	-0.987990	-1.715766	99
Es	3.093179	-0.622543	1.178197	99
Es	-2.218308	-0.583582	0.736982	99
Es	-1.525844	-0.217732	-2.110338	99
Es	1.254610	1.590156	-0.027817	99
Es	-2.637070	-1.186049	0.632375	99
Es	-0.799511	1.655854	-0.524207	99
Es	-1.593144	-0.537686	0.377152	99
Es	1.285557	0.173135	1.602822	99
Es	2.906397	-0.182169	0.786142	99
Es	-2.260009	-0.269922	1.407520	99
Es	-0.740011	1.445052	0.661563	99
Es	1.096508	0.689889	-0.820075	99
Es	3.067240	0.124807	0.846413	99
Es	-1.368868	-0.723484	-1.592796	99
Es	0.921502	0.930541	-0.124771	99
Es	-1.395651	-0.407590	-0.913944	99
Es	3.035291	-0.407080	0.220929	99
Es	2.277851	-0.152260	0.831924	99
48
Properties=species:S:1:pos:R:3:Z:I:1 energy=-289.3060198045893 field_type=dipole dipole="0.000000 0.000000 0.000000" charge=0
C	-1.368878	-0.723503	-1.592824	6
C	-1.430648	-0.089202	-0.230844	6
C	-2.218258	-0.583532	0.736896	6
C	-0.591828	1.151638	-0.014004	6
C	0.921552	0.930568	-0.124784	6
C	1.455742	-0.061522	0.907746	6
N	2.906672	-0.181632	0.786246	7
H	-1.606438	0.012868	-2.366944	1
H	-2.080568	-1.549773	-1.692204	1
H	-0.369138	-1.124952	-1.786544	1
H	-2.831028	-1.466372	0.578066	1
H	-2.277058	-0.118552	1.717486	1
H	-0.810518	1.591918	0.967736	1
H	-0.892998	1.905498	-0.752704	1
H	1.417862	1.900087	0.012316	1
H	1.176782	0.594068	-1.137214	1
H	1.007252	-1.050592	0.767836	1
H	1.210281	0.278568	1.919606	1
H	3.141342	-0.531802	-0.141874	1
H	3.239882	-0.883772	1.446006	1
Es	-0.740111	1.445144	0.661922	99
Es	-1.852438	-1.284656	-1.654893	99
Es	-2.260012	-0.269975	1.407442	99
Es	-1.524921	-0.217351	-2.111116	99
Es	-2.218315	-0.583579	0.736979	99
Es	-1.592905	-0.537632	0.377374	99
Es	-1.368869	-0.723484	-1.592797	99
Es	3.063453	0.120078	0.851016	99
Es	0.151802	1.018226	-0.072361	99
Es	1.254218	1.589769	-0.027431	99
Es	0.921500	0.930538	-0.124774	99
Es	-1.003849	0.519878	-0.124817	99
Es	1.137488	-0.740529	0.806113	99
Es	-1.395155	-0.407492	-0.913982	99
Es	-2.636785	-1.186294	0.632565	99
Es	3.092206	-0.623160	1.177081	99
Es	1.182322	0.431599	0.389594	99
Es	-0.591816	1.151592	-0.014023	99
Es	1.455884	-0.061507	0.907707	99
Es	2.277625	-0.152669	0.831312	99
Es	-0.799292	1.655719	-0.524487	99
Es	1.096799	0.689974	-0.820826	99
Es	-1.430555	-0.089158	-0.230958	99
Es	-2.089097	-0.156238	0.169606	99
Es	-0.691106	-0.987911	-1.714859	99
Es	3.040148	-0.401341	0.217705	99
Es	2.906413	-0.182116	0.786168	99
Es	1.285264	0.173124	1.603477	99
48
Properties=species:S:1:pos:R:3:Z:I:1 energy=-289.3060198045893 field_type=dipole dipole="0.000000 0.000000 0.000000" charge=0
C	-1.368878	-0.723503	-1.592824	6
C	-1.430648	-0.089202	-0.230844	6
C	-2.218258	-0.583532	0.736896	6
C	-0.591828	1.151638	-0.014004	6
C	0.921552	0.930568	-0.124784	6
C	1.455742	-0.061522	0.907746	6
N	2.906672	-0.181632	0.786246	7
H	-1.606438	0.012868	-2.366944	1
H	-2.080568	-1.549773	-1.692204	1
H	-0.369138	-1.124952	-1.786544	1
H	-2.831028	-1.466372	0.578066	1
H	-2.277058	-0.118552	1.717486	1
H	-0.810518	1.591918	0.967736	1
H	-0.892998	1.905498	-0.752704	1
H	1.417862	1.900087	0.012316	1
H	1.176782	0.594068	-1.137214	1
H	1.007252	-1.050592	0.767836	1
H	1.210281	0.278568	1.919606	1
H	3.141342	-0.531802	-0.141874	1
H	3.239882	-0.883772	1.446006	1
Es	1.097198	0.690114	-0.821298	99
Es	-2.636686	-1.186510	0.632758	99
Es	1.455885	-0.061507	0.907707	99
Es	2.277675	-0.153831	0.831103	99
Es	0.921501	0.930540	-0.124774	99
Es	-1.852579	-1.285238	-1.654760	99
Es	-0.798941	1.655828	-0.524728	99
Es	1.253965	1.589507	-0.026994	99
Es	-2.218314	-0.583580	0.736982	99
Es	1.137871	-0.740211	0.805824	99
Es	-1.394926	-0.407392	-0.914112	99
Es	-0.740002	1.445146	0.662183	99
Es	0.151314	1.018080	-0.072255	99
Es	-1.003887	0.519959	-0.125140	99
Es	1.182071	0.431435	0.389547	99
Es	3.044754	-0.395055	0.214923	99
Es	-0.691822	-0.987526	-1.714131	99
Es	1.285005	0.172967	1.603980	99
Es	-1.592642	-0.537826	0.377674	99
Es	-2.260041	-0.269963	1.407228	99
Es	-2.089323	-0.156237	0.169444	99
Es	2.906401	-0.182149	0.786159	99
Es	-1.430558	-0.089150	-0.230967	99
Es	3.059195	0.115424	0.854975	99
Es	-1.368869	-0.723485	-1.592797	99
Es	3.091747	-0.623424	1.175835	99
Es	-0.591818	1.151594	-0.014022	99
Es	-1.524285	-0.216958	-2.111604	99
48
Properties=species:S:1:pos:R:3:Z:I:1 energy=-289.3060198045893 field_type=dipole dipole="0.000000 0.000000 0.000000" charge=0
C	-1.368878	-0.723503	-1.592824	6
C	-1.430648	-0.089202	-0.230844	6
C	-2.218258	-0.583532	0.736896	6
C	-0.591828	1.151638	-0.014004	6
C	0.921552	0.930568	-0.124784	6
C	1.455742	-0.061522	0.907746	6
N	2.906672	-0.181632	0.786246	7
H	-1.606438	0.012868	-2.366944	1
H	-2.080568	-1.549773	-1.692204	1
H	-0.369138	-1.124952	-1.786544	1
H	-2.831028	-1.466372	0.578066	1
H	-2.277058	-0.118552	1.717486	1
H	-0.810518	1.591918	0.967736	1
H	-0.892998	1.905498	-0.752704	1
H	1.417862	1.900087	0.012316	1
H	1.176782	0.594068	-1.137214	1
H	1.007252	-1.050592	0.767836	1
H	1.210281	0.278568	1.919606	1
H	3.141342	-0.531802	-0.141874	1
H	3.239882	-0.883772	1.446006	1
Es	-1.592501	-0.537849	0.377992	99
Es	1.253483	1.589157	-0.026576	99
Es	1.284784	0.172928	1.604395	99
Es	-0.798624	1.655811	-0.524858	99
Es	1.182128	0.431352	0.389743	99
Es	-1.852828	-1.285765	-1.654307	99
Es	1.137998	-0.739908	0.805491	99
Es	-1.368868	-0.723484	-1.592796	99
Es	2.277832	-0.154353	0.830439	99
Es	1.455886	-0.061506	0.907705	99
Es	3.055573	0.110414	0.858017	99
Es	-2.218323	-0.583576	0.736980	99
Es	-0.692658	-0.987249	-1.713540	99
Es	-1.430554	-0.089154	-0.230955	99
Es	-1.394331	-0.407302	-0.914177	99
Es	-2.089529	-0.156272	0.169186	99
Es	0.150806	1.018157	-0.071989	99
Es	0.921502	0.930543	-0.124773	99
Es	-0.591818	1.151593	-0.014026	99
Es	-1.003705	0.519868	-0.125598	99
Es	-0.739956	1.445209	0.662470	99
Es	3.090938	-0.624076	1.174799	99
Es	2.906416	-0.182139	0.786184	99
Es	3.049037	-0.388766	0.213154	99
Es	-2.260019	-0.269898	1.406873	99
Es	1.097621	0.690327	-0.821913	99
Es	-1.523688	-0.216676	-2.112167	99
Es	-2.636709	-1.186832	0.632988	99
48
Properties=species:S:1:pos:R:3:Z:I:1 energy=-289.3060198045893 field_type=dipole dipole="0.000000 0.000000 0.000000" charge=0
C	-1.368878	-0.723503	-1.592824	6
C	-1.430648	-0.089202	-0.230844	6
C	-2.218258	-0.583532	0.736896	6
C	-0.591828	1.151638	-0.014004	6
C	0.921552	0.930568	-0.124784	6
C	1.455742	-0.061522	0.907746	6
N	2.906672	-0.181632	0.786246	7
H	-1.606438	0.012868	-2.366944	1
H	-2.080568	-1.549773	-1.692204	1
H	-0.369138	-1.124952	-1.786544	1
H	-2.831028	-1.466372	0.578066	1
H	-2.277058	-0.118552	1.717486	1
H	-0.810518	1.591918	0.967736	1
H	-0.892998	1.905498	-0.752704	1
H	1.417862	1.900087	0.012316	1
H	1.176782	0.594068	-1.137214	1
H	1.007252	-1.050592	0.767836	1
H	1.210281	0.278568	1.919606	1
H	3.141342	-0.531802	-0.141874	1
H	3.239882	-0.883772	1.446006	1
Es	1.284623	0.172821	1.604703	99
Es	1.138103	-0.739796	0.805110	99
Es	-2.636823	-1.187102	0.633164	99
Es	-0.693862	-0.986956	-1.712665	99
Es	1.097815	0.690340	-0.822305	99
Es	3.089778	-0.624676	1.173275	99
Es	-1.522657	-0.216386	-2.112919	99
Es	3.052206	0.104200	0.860827	99
Es	-1.430559	-0.089149	-0.230966	99
Es	-0.739885	1.445307	0.662508	99
Es	-1.393892	-0.407284	-0.914330	99
Es	-1.592577	-0.537798	0.378296	99
Es	1.253350	1.588993	-0.026286	99
Es	-0.798332	1.655870	-0.525186	99
Es	-2.260055	-0.269642	1.406562	99
Es	-1.368868	-0.723484	-1.592796	99
Es	1.455883	-0.061508	0.907706	99
Es	0.921502	0.930542	-0.124773	99
Es	-2.218320	-0.583576	0.736980	99
Es	-1.003648	0.519893	-0.125691	99
Es	-2.089275	-0.156525	0.169042	99
Es	2.906429	-0.182166	0.786187	99
Es	0.150366	1.018014	-0.071491	99
Es	2.277816	-0.154183	0.830107	99
Es	-1.853069	-1.286342	-1.654027	99
Es	1.182088	0.431341	0.389954	99
Es	-0.591817	1.151593	-0.014022	99
Es	3.053573	-0.381788	0.211776	99
48
Properties=species:S:1:pos:R:3:Z:I:1 energy=-289.3060198045893 field_type=dipole dipole="0.000000 0.000000 0.000000" charge=0
C	-1.368878	-0.723503	-1.592824	6
C	-1.430648	-0.089202	-0.230844	6
C	-2.218258	-0.583532	0.736896	6
C	-0.591828	1.151638	-0.014004	6
C	0.921552	0.930568	-0.124784	6
C	1.455742	-0.061522	0.907746	6
N	2.906672	-0.181632	0.786246	7
H	-1.606438	0.012868	-2.366944	1
H	-2.080568	-1.549773	-1.692204	1
H	-0.369138	-1.124952	-1.786544	1
H	-2.831028	-1.466372	0.578066	1
H	-2.277058	-0.118552	1.717486	1
H	-0.810518	1.591918	0.967736	1
H	-0.892998	1.905498	-0.752704	1
H	1.417862	1.900087	0.012316	1
H	1.176782	0.594068	-1.137214	1
H	1.007252	-1.050592	0.767836	1
H	1.210281	0.278568	1.919606	1
H	3.141342	-0.531802	-0.141874	1
H	3.239882	-0.883772	1.446006	1
Es	-1.393345	-0.407124	-0.914664	99
Es	-1.521342	-0.216198	-2.113815	99
Es	3.057739	-0.375147	0.211206	99
Es	-2.089746	-0.156740	0.169253	99
Es	-2.636707	-1.187470	0.633353	99
Es	-0.797881	1.655900	-0.525336	99
Es	1.455884	-0.061508	0.907707	99
Es	2.277752	-0.154683	0.829639	99
Es	3.089188	-0.624835	1.172095	99
Es	-1.853552	-1.286768	-1.653500	99
Es	-2.218316	-0.583581	0.736982	99
Es	-1.592413	-0.537415	0.378032	99
Es	-0.695195	-0.986853	-1.711643	99
Es	-0.591817	1.151593	-0.014022	99
Es	-1.430558	-0.089149	-0.230965	99
Es	1.138280	-0.739641	0.804892	99
Es	-2.259937	-0.269566	1.406394	99
Es	0.149896	1.017798	-0.071080	99
Es	-1.003467	0.519805	-0.126149	99
Es	0.921502	0.930541	-0.124774	99
Es	1.098225	0.690457	-0.822743	99
Es	-0.739976	1.445350	0.662706	99
Es	3.048703	0.098560	0.862581	99
Es	1.253032	1.588872	-0.025809	99
Es	2.906426	-0.182187	0.786187	99
Es	-1.368867	-0.723483	-1.592795	99
Es	1.284440	0.172823	1.604998	99
Es	1.181946	0.431201	0.390010	99
48
Properties=species:S:1:pos:R:3:Z:I:1 energy=-289.3060198045893 field_type=dipole dipole="0.000000 0.000000 0.000000" charge=0
C	-1.368878	-0.723503	-1.592824	6
C	-1.430648	-0.089202	-0.230844	6
C	-2.218258	-0.583532	0.736896	6
C	-0.591828	1.151638	-0.014004	6
C	0.921552	0.930568	-0.124784	6
C	1.455742	-0.061522	0.907746	6
N	2.906672	-0.181632	0.786246	7
H	-1.606438	0.012868	-2.366944	1
H	-2.080568	-1.549773	-1.692204	1
H	-0.369138	-1.124952	-1.786544	1
H	-2.831028	-1.466372	0.578066	1
H	-2.277058	-0.118552	1.717486	1
H	-0.810518	1.591918	0.967736	1
H	-0.892998	1.905498	-0.752704	1
H	1.417862	1.900087	0.012316	1
H	1.176782	0.594068	-1.137214	1
H	1.007252	-1.050592	0.767836	1
H	1.210281	0.278568	1.919606	1
H	3.141342	-0.531802	-0.141874	1
H	3.239882	-0.883772	1.446006	1
Es	1.181781	0.430834	0.390316	99
Es	-0.696523	-0.986604	-1.710587	99
Es	0.921502	0.930543	-0.124773	99
Es	-0.591818	1.151595	-0.014022	99
Es	1.098631	0.690739	-0.823206	99
Es	-1.430554	-0.089153	-0.230963	99
Es	0.149206	1.017603	-0.070642	99
Es	3.045951	0.092759	0.864063	99
Es	-1.853738	-1.287220	-1.653073	99
Es	1.455881	-0.061505	0.907708	99
Es	-2.218321	-0.583577	0.736980	99
Es	-0.797319	1.656003	-0.525647	99
Es	-2.259874	-0.269337	1.406057	99
Es	2.906407	-0.182163	0.786169	99
Es	-1.393149	-0.407119	-0.914924	99
Es	-2.089563	-0.156923	0.169145	99
Es	1.138434	-0.739412	0.804563	99
Es	-2.636860	-1.187666	0.633626	99
Es	1.252751	1.588547	-0.025303	99
Es	2.277831	-0.154592	0.829199	99
Es	-1.520089	-0.216090	-2.114755	99
Es	3.061498	-0.368775	0.211016	99
Es	-1.592504	-0.537361	0.378209	99
Es	3.088213	-0.625106	1.170646	99
Es	-1.003315	0.519813	-0.126467	99
Es	1.284189	0.172752	1.605305	99
Es	-0.739889	1.445455	0.662897	99
Es	-1.368868	-0.723486	-1.592798	99
48
Properties=species:S:1:pos:R:3:Z:I:1 energy=-289.3060198045893 field_type=dipole dipole="0.000000 0.000000 0.000000" charge=0
C	-1.368878	-0.723503	-1.592824	6
C	-1.430648	-0.089202	-0.230844	6
C	-2.218258	-0.583532	0.736896	6
C	-0.591828	1.151638	-0.014004	6
C	0.921552	0.930568	-0.124784	6
C	1.455742	-0.061522	0.907746	6
N	2.906672	-0.181632	0.786246	7
H	-1.606438	0.012868	-2.366944	1
H	-2.080568	-1.549773	-1.692204	1
H	-0.369138	-1.124952	-1.786544	1
H	-2.831028	-1.466372	0.578066	1
H	-2.277058	-0.118552	1.717486	1
H	-0.810518	1.591918	0.967736	1
H	-0.892998	1.905498	-0.752704	1
H	1.417862	1.900087	0.012316	1
H	1.176782	0.594068	-1.137214	1
H	1.007252	-1.050592	0.767836	1
H	1.210281	0.278568	1.919606	1
H	3.141342	-0.531802	-0.141874	1
H	3.239882	-0.883772	1.446006	1
Es	0.921502	0.930544	-0.124773	99
Es	-1.592540	-0.537192	0.378467	99
Es	0.148665	1.017388	-0.070241	99
Es	3.087284	-0.625563	1.169699	99
Es	-0.796993	1.655933	-0.525794	99
Es	1.284111	0.172841	1.605473	99
Es	-0.591817	1.151593	-0.014022	99
Es	2.906415	-0.182186	0.786182	99
Es	1.181711	0.430600	0.390482	99
Es	3.043416	0.087183	0.864747	99
Es	-2.636891	-1.187876	0.633677	99
Es	-1.003304	0.519767	-0.126635	99
Es	-2.089375	-0.157118	0.169056	99
Es	1.455883	-0.061507	0.907707	99
Es	1.098899	0.690790	-0.823441	99
Es	-1.853947	-1.287565	-1.652900	99
Es	-2.218322	-0.583577	0.736981	99
Es	-2.260009	-0.269153	1.405839	99
Es	1.252649	1.588419	-0.025005	99
Es	3.064824	-0.362814	0.211291	99
Es	-0.739889	1.445597	0.663052	99
Es	-1.518405	-0.215983	-2.115743	99
Es	-0.698237	-0.986397	-1.709453	99
Es	-1.368867	-0.723484	-1.592797	99
Es	-1.392787	-0.407141	-0.915096	99
Es	1.138505	-0.739353	0.804444	99
Es	-1.430555	-0.089152	-0.230964	99
Es	2.277967	-0.154038	0.828507	99
48
Properties=species:S:1:pos:R:3:Z:I:1 energy=-289.3060198045893 field_type=dipole dipole="0.000000 0.000000 0.000000" charge=0
C	-1.368878	-0.723503	-1.592824	6
C	-1.430648	-0.089202	-0.230844	6
C	-2.218258	-0.583532	0.736896	6
C	-0.591828	1.151638	-0.014004	6
C	0.921552	0.930568	-0.124784	6
C	1.455742	-0.061522	0.907746	6
N	2.906672	-0.181632	0.786246	7
H	-1.606438	0.012868	-2.366944	1
H	-2.080568	-1.549773	-1.692204	1
H	-0.369138	-1.124952	-1.786544	1
H	-2.831028	-1.466372	0.578066	1
H	-2.277058	-0.118552	1.717486	1
H	-0.810518	1.591918	0.967736	1
H	-0.892998	1.905498	-0.752704	1
H	1.417862	1.900087	0.012316	1
H	1.176782	0.594068	-1.137214	1
H	1.007252	-1.050592	0.767836	1
H	1.210281	0.278568	1.919606	1
H	3.141342	-0.531802	-0.141874	1
H	3.239882	-0.883772	1.446006	1
Es	-1.854075	-1.287774	-1.652669	99
Es	-1.593105	-0.537183	0.378975	99
Es	-1.517057	-0.215879	-2.116558	99
Es	-1.003119	0.519793	-0.126824	99
Es	-2.260025	-0.268927	1.405584	99
Es	1.099084	0.690845	-0.823699	99
Es	-0.795983	1.656276	-0.526566	99
Es	-1.392676	-0.407241	-0.915234	99
Es	2.906419	-0.182152	0.786173	99
Es	-2.636893	-1.188130	0.633876	99
Es	-2.088784	-0.157162	0.168607	99
Es	-0.699623	-0.986238	-1.708534	99
Es	-1.430553	-0.089154	-0.230963	99
Es	-2.218322	-0.583577	0.736980	99
Es	2.277306	-0.154855	0.828917	99
Es	-1.368868	-0.723484	-1.592796	99
Es	1.181950	0.430602	0.390591	99
Es	-0.591818	1.151592	-0.014022	99
Es	0.921502	0.930544	-0.124774	99
Es	1.252457	1.588327	-0.024789	99
Es	3.067714	-0.357647	0.211766	99
Es	1.283958	0.172845	1.605610	99
Es	0.147414	1.016612	-0.068974	99
Es	3.040844	0.082227	0.864760	99
Es	1.455882	-0.061507	0.907708	99
Es	1.138518	-0.739285	0.804185	99
Es	3.087658	-0.624576	1.168249	99
Es	-0.739912	1.445660	0.663160	99
48
Properties=species:S:1:pos:R:3:Z:I:1 energy=-289.3060198045893 field_type=dipole dipole="0.000000 0.000000 0.000000" charge=0
C	-1.368878	-0.723503	-1.592824	6
C	-1.430648	-0.089202	-0.230844	6
C	-2.218258	-0.583532	0.736896	6
C	-0.591828	1.151638	-0.014004	6
C	0.921552	0.930568	-0.124784	6
C	1.455742	-0.061522	0.907746	6
N	2.906672	-0.181632	0.786246	7
H	-1.606438	0.012868	-2.366944	1
H	-2.080568	-1.549773	-1.692204	1
H	-0.369138	-1.124952	-1.786544	1
H	-2.831028	-1.466372	0.578066	1
H	-2.277058	-0.118552	1.717486	1
H	-0.810518	1.591918	0.967736	1
H	-0.892998	1.905498	-0.752704	1
H	1.417862	1.900087	0.012316	1
H	1.176782	0.594068	-1.137214	1
H	1.007252	-1.050592	0.767836	1
H	1.210281	0.278568	1.919606	1
H	3.141342	-0.531802	-0.141874	1
H	3.239882	-0.883772	1.446006	1
Es	0.146393	1.016053	-0.067835	99
Es	3.087107	-0.624853	1.167630	99
Es	1.455879	-0.061505	0.907707	99
Es	-1.368867	-0.723483	-1.592795	99
Es	-1.515231	-0.215959	-2.117596	99
Es	1.283840	0.172839	1.605785	99
Es	-1.392332	-0.407200	-0.915424	99
Es	2.277325	-0.153855	0.828275	99
Es	-2.089532	-0.157654	0.169033	99
Es	1.099365	0.691054	-0.824010	99
Es	-0.795129	1.656471	-0.527068	99
Es	-0.591815	1.151592	-0.014022	99
Es	-1.854331	-1.287898	-1.652311	99
Es	-2.636773	-1.188341	0.634105	99
Es	-1.003076	0.519774	-0.127079	99
Es	-0.701406	-0.986110	-1.707430	99
Es	2.906409	-0.182184	0.786177	99
Es	-1.430558	-0.089150	-0.230964	99
Es	1.252209	1.588051	-0.024545	99
Es	0.921502	0.930545	-0.124774	99
Es	1.182101	0.430364	0.390803	99
Es	-0.740027	1.445719	0.663221	99
Es	3.039362	0.078167	0.864686	99
Es	-2.218326	-0.583573	0.736979	99
Es	1.138643	-0.739166	0.804049	99
Es	-2.260128	-0.268687	1.405358	99
Es	-1.592416	-0.536790	0.378510	99
Es	3.069704	-0.353668	0.212274	99
48
Properties=species:S:1:pos:R:3:Z:I:1 energy=-289.3060198045893 field_type=dipole dipole="0.000000 0.000000 0.000000" charge=0
C	-1.368878	-0.723503	-1.592824	6
C	-1.430648	-0.089202	-0.230844	6
C	-2.218258	-0.583532	0.736896	6
C	-0.591828	1.151638	-0.014004	6
C	0.921552	0.930568	-0.124784	6
C	1.455742	-0.061522	0.907746	6
N	2.906672	-0.181632	0.786246	7
H	-1.606438	0.012868	-2.366944	1
H	-2.080568	-1.549773	-1.692204	1
H	-0.369138	-1.124952	-1.786544	1
H	-2.831028	-1.466372	0.578066	1
H	-2.277058	-0.118552	1.717486	1
H	-0.810518	1.591918	0.967736	1
H	-0.892998	1.905498	-0.752704	1
H	1.417862	1.900087	0.012316	1
H	1.176782	0.594068	-1.137214	1
H	1.007252	-1.050592	0.767836	1
H	1.210281	0.278568	1.919606	1
H	3.141342	-0.531802	-0.141874	1
H	3.239882	-0.883772	1.446006	1
Es	-2.636870	-1.188439	0.634206	99
Es	1.138693	-0.739059	0.803971	99
Es	-1.513889	-0.216115	-2.118394	99
Es	-0.591818	1.151594	-0.014022	99
Es	1.099484	0.691032	-0.824156	99
Es	1.182155	0.430019	0.391236	99
Es	1.283753	0.172866	1.605886	99
Es	3.038011	0.073616	0.864688	99
Es	0.145419	1.015615	-0.066892	99
Es	-0.794244	1.656598	-0.527605	99
Es	3.086393	-0.625014	1.166561	99
Es	-2.218322	-0.583577	0.736980	99
Es	-1.392326	-0.407218	-0.915588	99
Es	-0.702759	-0.985794	-1.706546	99
Es	-1.368866	-0.723484	-1.592796	99
Es	-2.260143	-0.268573	1.405164	99
Es	-1.002977	0.519814	-0.127323	99
Es	-0.740108	1.445840	0.663301	99
Es	-1.854345	-1.288159	-1.652036	99
Es	-2.089009	-0.157563	0.168628	99
Es	2.906401	-0.182165	0.786178	99
Es	1.455882	-0.061507	0.907708	99
Es	0.921503	0.930544	-0.124773	99
Es	2.277088	-0.152892	0.827687	99
Es	-1.592807	-0.536868	0.379054	99
Es	-1.430561	-0.089147	-0.230966	99
Es	3.072001	-0.349316	0.213048	99
Es	1.252157	1.587905	-0.024456	99
48
Properties=species:S:1:pos:R:3:Z:I:1 energy=-289.3060198045893 field_type=dipole dipole="0.000000 0.000000 0.000000" charge=0
C	-1.368878	-0.723503	-1.592824	6
C	-1.430648	-0.089202	-0.230844	6
C	-2.218258	-0.583532	0.736896	6
C	-0.591828	1.151638	-0.014004	6
C	0.921552	0.930568	-0.124784	6
C	1.455742	-0.061522	0.907746	6
N	2.906672	-0.181632	0.786246	7
H	-1.606438	0.012868	-2.366944	1
H	-2.080568	-1.549773	-1.692204	1
H	-0.369138	-1.124952	-1.786544	1
H	-2.831028	-1.466372	0.578066	1
H	-2.277058	-0.118552	1.717486	1
H	-0.810518	1.591918	0.967736	1
H	-0.892998	1.905498	-0.752704	1
H	1.417862	1.900087	0.012316	1
H	1.176782	0.594068	-1.137214	1
H	1.007252	-1.050592	0.767836	1
H	1.210281	0.278568	1.919606	1
H	3.141342	-0.531802	-0.141874	1
H	3.239882	-0.883772	1.446006	1
Es	1.182397	0.429725	0.391447	99
Es	-1.002782	0.519798	-0.127671	99
Es	3.085750	-0.625560	1.166609	99
Es	0.921502	0.930545	-0.124775	99
Es	1.138662	-0.739011	0.803787	99
Es	-0.703784	-0.985628	-1.706090	99
Es	-1.368870	-0.723485	-1.592799	99
Es	-2.260129	-0.268396	1.405010	99
Es	1.251890	1.587667	-0.024026	99
Es	2.277317	-0.151173	0.826727	99
Es	-0.591813	1.151593	-0.014021	99
Es	-1.593442	-0.536885	0.379520	99
Es	-2.218323	-0.583576	0.736980	99
Es	-0.740090	1.445732	0.663461	99
Es	-1.392178	-0.407271	-0.915670	99
Es	3.073777	-0.345649	0.213734	99
Es	-1.512905	-0.216223	-2.118844	99
Es	-1.854520	-1.288266	-1.651765	99
Es	-0.793765	1.656794	-0.527817	99
Es	-1.430556	-0.089150	-0.230964	99
Es	1.099861	0.691358	-0.824426	99
Es	0.144611	1.015043	-0.066114	99
Es	1.455884	-0.061506	0.907711	99
Es	-2.636900	-1.188540	0.634370	99
Es	-2.088335	-0.157593	0.168199	99
Es	3.036613	0.069461	0.864054	99
Es	1.283619	0.172929	1.605937	99
Es	2.906404	-0.182181	0.786175	99
48
Properties=species:S:1:pos:R:3:Z:I:1 energy=-289.3060198045893 field_type=dipole dipole="0.000000 0.000000 0.000000" charge=0
C	-1.368878	-0.723503	-1.592824	6
C	-1.430648	-0.089202	-0.230844	6
C	-2.218258	-0.583532	0.736896	6
C	-0.591828	1.151638	-0.014004	6
C	0.921552	0.930568	-0.124784	6
C	1.455742	-0.061522	0.907746	6
N	2.906672	-0.181632	0.786246	7
H	-1.606438	0.012868	-2.366944	1
H	-2.080568	-1.549773	-1.692204	1
H	-0.369138	-1.124952	-1.786544	1
H	-2.831028	-1.466372	0.578066	1
H	-2.277058	-0.118552	1.717486	1
H	-0.810518	1.591918	0.967736	1
H	-0.892998	1.905498	-0.752704	1
H	1.417862	1.900087	0.012316	1
H	1.176782	0.594068	-1.137214	1
H	1.007252	-1.050592	0.767836	1
H	1.210281	0.278568	1.919606	1
H	3.141342	-0.531802	-0.141874	1
H	3.239882	-0.883772	1.446006	1
Es	2.906410	-0.182220	0.786167	99
Es	3.074984	-0.343093	0.214311	99
Es	1.138738	-0.738921	0.803850	99
Es	-2.218318	-0.583579	0.736982	99
Es	-2.260206	-0.268405	1.404924	99
Es	-2.089329	-0.157736	0.168567	99
Es	2.276806	-0.150851	0.826687	99
Es	-1.511028	-0.216365	-2.119740	99
Es	1.283618	0.172868	1.605964	99
Es	-1.430557	-0.089151	-0.230965	99
Es	-0.705579	-0.985333	-1.705046	99
Es	-1.002846	0.519882	-0.127606	99
Es	1.251898	1.587499	-0.024098	99
Es	1.182545	0.429732	0.391531	99
Es	3.085694	-0.625290	1.165527	99
Es	-0.792507	1.657062	-0.528649	99
Es	3.035881	0.066845	0.863906	99
Es	-1.391881	-0.407351	-0.916004	99
Es	-1.368867	-0.723484	-1.592796	99
Es	0.921501	0.930543	-0.124779	99
Es	-0.591816	1.151591	-0.014021	99
Es	0.143121	1.014341	-0.064766	99
Es	-2.636777	-1.188568	0.634477	99
Es	1.099965	0.691284	-0.824441	99
Es	-0.740199	1.445784	0.663492	99
Es	-1.592595	-0.536662	0.379081	99
Es	1.455882	-0.061505	0.907711	99
Es	-1.854643	-1.288366	-1.651525	99
48
Properties=species:S:1:pos:R:3:Z:I:1 energy=-289.3060198045893 field_type=dipole dipole="0.000000 0.000000 0.000000" charge=0
C	-1.368878	-0.723503	-1.592824	6
C	-1.430648	-0.089202	-0.230844	6
C	-2.218258	-0.583532	0.736896	6
C	-0.591828	1.151638	-0.014004	6
C	0.921552	0.930568	-0.124784	6
C	1.455742	-0.061522	0.907746	6
N	2.906672	-0.181632	0.786246	7
H	-1.606438	0.012868	-2.366944	1
H	-2.080568	-1.549773	-1.692204	1
H	-0.369138	-1.124952	-1.786544	1
H	-2.831028	-1.466372	0.578066	1
H	-2.277058	-0.118552	1.717486	1
H	-0.810518	1.591918	0.967736	1
H	-0.892998	1.905498	-0.752704	1
H	1.417862	1.900087	0.012316	1
H	1.176782	0.594068	-1.137214	1
H	1.007252	-1.050592	0.767836	1
H	1.210281	0.278568	1.919606	1
H	3.141342	-0.531802	-0.141874	1
H	3.239882	-0.883772	1.446006	1
Es	-1.002787	0.519807	-0.127718	99
Es	3.076581	-0.339711	0.215113	99
Es	1.183070	0.430419	0.390732	99
Es	1.251892	1.587485	-0.024120	99
Es	-0.706438	-0.985193	-1.704581	99
Es	-2.260367	-0.268268	1.404855	99
Es	3.085502	-0.625338	1.165041	99
Es	0.141264	1.013139	-0.062650	99
Es	2.906428	-0.182176	0.786195	99
Es	-1.391995	-0.407458	-0.915849	99
Es	-0.591814	1.151592	-0.014019	99
Es	-1.592757	-0.536658	0.379383	99
Es	-2.218322	-0.583577	0.736981	99
Es	1.283488	0.172761	1.606072	99
Es	3.034653	0.063042	0.863206	99
Es	1.138793	-0.738805	0.803655	99
Es	-2.636730	-1.188652	0.634458	99
Es	-2.089026	-0.157792	0.168387	99
Es	-1.430560	-0.089151	-0.230965	99
Es	2.276533	-0.150144	0.826693	99
Es	-1.510107	-0.216430	-2.120122	99
Es	-1.368867	-0.723484	-1.592796	99
Es	1.099936	0.691254	-0.824470	99
Es	0.921503	0.930545	-0.124774	99
Es	-0.740248	1.445829	0.663431	99
Es	1.455878	-0.061508	0.907707	99
Es	-1.854594	-1.288365	-1.651628	99
Es	-0.791016	1.657390	-0.529475	99
48
Properties=species:S:1:pos:R:3:Z:I:1 energy=-289.3060198045893 field_type=dipole dipole="0.000000 0.000000 0.000000" charge=0
C	-1.368878	-0.723503	-1.592824	6
C	-1.430648	-0.089202	-0.230844	6
C	-2.218258	-0.583532	0.736896	6
C	-0.591828	1.151638	-0.014004	6
C	0.921552	0.930568	-0.124784	6
C	1.455742	-0.061522	0.907746	6
N	2.906672	-0.181632	0.786246	7
H	-1.606438	0.012868	-2.366944	1
H	-2.080568	-1.549773	-1.692204	1
H	-0.369138	-1.124952	-1.786544	1
H	-2.831028	-1.466372	0.578066	1
H	-2.277058	-0.118552	1.717486	1
H	-0.810518	1.591918	0.967736	1
H	-0.892998	1.905498	-0.752704	1
H	1.417862	1.900087	0.012316	1
H	1.176782	0.594068	-1.137214	1
H	1.007252	-1.050592	0.767836	1
H	1.210281	0.278568	1.919606	1
H	3.141342	-0.531802	-0.141874	1
H	3.239882	-0.883772	1.446006	1
Es	-1.430563	-0.089146	-0.230964	99
Es	-1.510990	-0.216293	-2.119748	99
Es	3.077220	-0.338341	0.215453	99
Es	-0.740491	1.445632	0.663577	99
Es	2.275952	-0.150618	0.826550	99
Es	1.138864	-0.738719	0.803669	99
Es	-1.368869	-0.723482	-1.592799	99
Es	-2.636798	-1.188681	0.634627	99
Es	3.033908	0.061919	0.862939	99
Es	-2.088699	-0.157618	0.168031	99
Es	1.283424	0.172738	1.606120	99
Es	1.183169	0.429943	0.391173	99
Es	-0.788580	1.657853	-0.530566	99
Es	2.906422	-0.182165	0.786191	99
Es	1.100363	0.691737	-0.824774	99
Es	-1.002706	0.519992	-0.127970	99
Es	-0.705697	-0.985184	-1.704978	99
Es	-1.854804	-1.288529	-1.650946	99
Es	-1.391581	-0.407367	-0.916453	99
Es	1.251524	1.586954	-0.023825	99
Es	-2.218323	-0.583576	0.736980	99
Es	-1.593047	-0.536831	0.379778	99
Es	0.921503	0.930544	-0.124774	99
Es	-0.591817	1.151591	-0.014022	99
Es	0.138861	1.012488	-0.061180	99
Es	-2.260294	-0.268306	1.404666	99
Es	3.086062	-0.624478	1.164277	99
Es	1.455881	-0.061506	0.907709	99
48
Properties=species:S:1:pos:R:3:Z:I:1 energy=-289.3060198045893 field_type=dipole dipole="0.000000 0.000000 0.000000" charge=0
C	-1.368878	-0.723503	-1.592824	6
C	-1.430648	-0.089202	-0.230844	6
C	-2.218258	-0.583532	0.736896	6
C	-0.591828	1.151638	-0.014004	6
C	0.921552	0.930568	-0.124784	6
C	1.455742	-0.061522	0.907746	6
N	2.906672	-0.181632	0.786246	7
H	-1.606438	0.012868	-2.366944	1
H	-2.080568	-1.549773	-1.692204	1
H	-0.369138	-1.124952	-1.786544	1
H	-2.831028	-1.466372	0.578066	1
H	-2.277058	-0.118552	1.717486	1
H	-0.810518	1.591918	0.967736	1
H	-0.892998	1.905498	-0.752704	1
H	1.417862	1.900087	0.012316	1
H	1.176782	0.594068	-1.137214	1
H	1.007252	-1.050592	0.767836	1
H	1.210281	0.278568	1.919606	1
H	3.141342	-0.531802	-0.141874	1
H	3.239882	-0.883772	1.446006	1
Es	0.921501	0.930546	-0.124776	99
Es	1.138934	-0.738581	0.803541	99
Es	2.906419	-0.182170	0.786190	99
Es	-1.002541	0.520077	-0.128188	99
Es	3.033490	0.058718	0.862498	99
Es	3.084274	-0.626356	1.165254	99
Es	1.455882	-0.061507	0.907708	99
Es	-0.740486	1.445644	0.663635	99
Es	-1.507875	-0.216683	-2.121047	99
Es	1.283293	0.172652	1.606170	99
Es	-0.790221	1.657537	-0.529791	99
Es	1.100382	0.691672	-0.824747	99
Es	-0.708582	-0.984697	-1.703450	99
Es	-1.368867	-0.723484	-1.592796	99
Es	1.251601	1.586928	-0.023844	99
Es	0.140441	1.012809	-0.061937	99
Es	-2.218315	-0.583581	0.736983	99
Es	-1.391982	-0.407602	-0.916144	99
Es	-0.591816	1.151592	-0.014021	99
Es	-2.636751	-1.188764	0.634742	99
Es	-1.854735	-1.288520	-1.651239	99
Es	-1.592098	-0.536368	0.378840	99
Es	-2.089684	-0.158130	0.168936	99
Es	2.276670	-0.146942	0.824230	99
Es	1.183370	0.429082	0.392212	99
Es	3.078467	-0.336040	0.216149	99
Es	-1.430556	-0.089152	-0.230963	99
Es	-2.260322	-0.268129	1.404595	99
48
Properties=species:S:1:pos:R:3:Z:I:1 energy=-289.3060198045893 field_type=dipole dipole="0.000000 0.000000 0.000000" charge=0
C	-1.368878	-0.723503	-1.592824	6
C	-1.430648	-0.089202	-0.230844	6
C	-2.218258	-0.583532	0.736896	6
C	-0.591828	1.151638	-0.014004	6
C	0.921552	0.930568	-0.124784	6
C	1.455742	-0.061522	0.907746	6
N	2.906672	-0.181632	0.786246	7
H	-1.606438	0.012868	-2.366944	1
H	-2.080568	-1.549773	-1.692204	1
H	-0.369138	-1.124952	-1.786544	1
H	-2.831028	-1.466372	0.578066	1
H	-2.277058	-0.118552	1.717486	1
H	-0.810518	1.591918	0.967736	1
H	-0.892998	1.905498	-0.752704	1
H	1.417862	1.900087	0.012316	1
H	1.176782	0.594068	-1.137214	1
H	1.007252	-1.050592	0.767836	1
H	1.210281	0.278568	1.919606	1
H	3.141342	-0.531802	-0.141874	1
H	3.239882	-0.883772	1.446006	1
Es	1.100410	0.691702	-0.824764	99
Es	-2.636727	-1.188762	0.634760	99
Es	-1.592103	-0.536414	0.379028	99
Es	3.032659	0.056664	0.862198	99
Es	3.079276	-0.333649	0.216713	99
Es	0.921500	0.930546	-0.124777	99
Es	-0.789552	1.657644	-0.530182	99
Es	1.283254	0.172588	1.606210	99
Es	3.084196	-0.626720	1.165103	99
Es	1.138942	-0.738482	0.803507	99
Es	-2.260382	-0.268108	1.404558	99
Es	-1.391659	-0.407434	-0.916515	99
Es	1.183632	0.428202	0.393297	99
Es	2.276555	-0.146094	0.822982	99
Es	1.251523	1.586934	-0.023811	99
Es	-2.218331	-0.583567	0.736975	99
Es	-1.368869	-0.723485	-1.592799	99
Es	-0.591818	1.151593	-0.014022	99
Es	-1.002656	0.519951	-0.127975	99
Es	0.139745	1.012632	-0.061560	99
Es	2.906395	-0.182109	0.786156	99
Es	-0.740460	1.445685	0.663592	99
Es	-1.507302	-0.216910	-2.121316	99
Es	-1.854979	-1.288305	-1.650890	99
Es	-2.089694	-0.158071	0.168751	99
Es	-0.708985	-0.984817	-1.703224	99
Es	-1.430558	-0.089154	-0.230965	99
Es	1.455881	-0.061508	0.907708	99
48
Properties=species:S:1:pos:R:3:Z:I:1 energy=-289.3060198045893 field_type=dipole dipole="0.000000 0.000000 0.000000" charge=0
C	-1.368878	-0.723503	-1.592824	6
C	-1.430648	-0.089202	-0.230844	6
C	-2.218258	-0.583532	0.736896	6
C	-0.591828	1.151638	-0.014004	6
C	0.921552	0.930568	-0.124784	6
C	1.455742	-0.061522	0.907746	6
N	2.906672	-0.181632	0.786246	7
H	-1.606438	0.012868	-2.366944	1
H	-2.080568	-1.549773	-1.692204	1
H	-0.369138	-1.124952	-1.786544	1
H	-2.831028	-1.466372	0.578066	1
H	-2.277058	-0.118552	1.717486	1
H	-0.810518	1.591918	0.967736	1
H	-0.892998	1.905498	-0.752704	1
H	1.417862	1.900087	0.012316	1
H	1.176782	0.594068	-1.137214	1
H	1.007252	-1.050592	0.767836	1
H	1.210281	0.278568	1.919606	1
H	3.141342	-0.531802	-0.141874	1
H	3.239882	-0.883772	1.446006	1
Es	2.276248	-0.145845	0.823449	99
Es	1.455880	-0.061506	0.907708	99
Es	-2.260411	-0.268026	1.404435	99
Es	1.251414	1.586713	-0.023748	99
Es	1.283210	0.172617	1.606204	99
Es	-1.002650	0.520040	-0.128286	99
Es	0.921502	0.930546	-0.124775	99
Es	-0.740589	1.445676	0.663674	99
Es	-1.391599	-0.407526	-0.916637	99
Es	-2.088774	-0.157901	0.168130	99
Es	-2.636853	-1.188790	0.634778	99
Es	0.138423	1.011804	-0.060034	99
Es	-1.430557	-0.089151	-0.230965	99
Es	-2.218322	-0.583576	0.736980	99
Es	-1.507531	-0.216816	-2.121217	99
Es	3.080120	-0.332308	0.217226	99
Es	1.183810	0.429016	0.392229	99
Es	3.084127	-0.626428	1.164801	99
Es	1.138975	-0.738463	0.803511	99
Es	-0.591816	1.151591	-0.014021	99
Es	-0.708845	-0.984722	-1.703297	99
Es	-1.368867	-0.723483	-1.592796	99
Es	-1.854994	-1.288435	-1.650672	99
Es	1.100521	0.691821	-0.824904	99
Es	-0.788314	1.657761	-0.530638	99
Es	3.031980	0.054801	0.861469	99
Es	-1.592745	-0.536669	0.379843	99
Es	2.906550	-0.182189	0.786291	99
48
Properties=species:S:1:pos:R:3:Z:I:1 energy=-289.3060198045893 field_type=dipole dipole="0.000000 0.000000 0.000000" charge=0
C	-1.368878	-0.723503	-1.592824	6
C	-1.430648	-0.089202	-0.230844	6
C	-2.218258	-0.583532	0.736896	6
C	-0.591828	1.151638	-0.014004	6
C	0.921552	0.930568	-0.124784	6
C	1.455742	-0.061522	0.907746	6
N	2.906672	-0.181632	0.786246	7
H	-1.606438	0.012868	-2.366944	1
H	-2.080568	-1.549773	-1.692204	1
H	-0.369138	-1.124952	-1.786544	1
H	-2.831028	-1.466372	0.578066	1
H	-2.277058	-0.118552	1.717486	1
H	-0.810518	1.591918	0.967736	1
H	-0.892998	1.905498	-0.752704	1
H	1.417862	1.900087	0.012316	1
H	1.176782	0.594068	-1.137214	1
H	1.007252	-1.050592	0.767836	1
H	1.210281	0.278568	1.919606	1
H	3.141342	-0.531802	-0.141874	1
H	3.239882	-0.883772	1.446006	1
Es	2.276286	-0.143170	0.820584	99
Es	-1.507674	-0.216735	-2.121111	99
Es	0.138692	1.012802	-0.061339	99
Es	-2.218322	-0.583577	0.736980	99
Es	-0.708840	-0.984594	-1.703400	99
Es	-2.260393	-0.268051	1.404354	99
Es	1.251301	1.586491	-0.023534	99
Es	2.906465	-0.182216	0.786226	99
Es	1.283017	0.172548	1.606274	99
Es	3.031365	0.053287	0.861074	99
Es	1.139062	-0.738284	0.803383	99
Es	-0.740670	1.445588	0.663723	99
Es	3.080832	-0.330803	0.217684	99
Es	-1.368868	-0.723484	-1.592796	99
Es	-1.592255	-0.536589	0.379390	99
Es	-1.855073	-1.288608	-1.650412	99
Es	-2.089351	-0.157972	0.168514	99
Es	-0.591815	1.151591	-0.014020	99
Es	1.100823	0.692067	-0.824961	99
Es	-0.788348	1.657780	-0.530633	99
Es	3.083378	-0.627276	1.165605	99
Es	-1.002535	0.520037	-0.128192	99
Es	-1.430554	-0.089155	-0.230961	99
Es	1.455879	-0.061506	0.907707	99
Es	1.184175	0.426127	0.395467	99
Es	-1.391293	-0.407512	-0.916933	99
Es	0.921502	0.930546	-0.124776	99
Es	-2.636892	-1.188779	0.634843	99
