45
Properties=species:S:1:pos:R:3:Z:I:1 energy=-288.1639189305001 field_type=dipole dipole="0.000000 0.000000 0.000000" charge=0
C	-1.647162	-0.474318	1.163361	6
C	-0.261722	-0.333168	0.526181	6
C	0.132798	-1.649078	-0.145579	6
C	-0.262072	0.855862	-0.457069	6
C	1.078628	1.148292	-1.136209	6
C	2.116128	1.548242	-0.176409	6
N	2.937288	1.863692	0.579291	7
H	-1.930562	0.445122	1.686501	1
H	-1.658552	-1.289768	1.894381	1
H	-2.412472	-0.685418	0.408601	1
H	0.453188	-0.133008	1.333611	1
H	-0.506462	-1.861618	-1.009039	1
H	0.042188	-2.485738	0.555711	1
H	1.172178	-1.626068	-0.486579	1
H	-0.591672	1.756822	0.077881	1
H	-1.008822	0.672252	-1.240729	1
H	0.932098	1.963312	-1.855299	1
H	1.415008	0.284582	-1.718609	1
Es	-1.650898	-1.032074	1.659348	99
Es	-2.166107	-0.618030	0.641494	99
Es	-0.962695	-0.401199	0.839243	99
Es	1.318513	0.575014	-1.506757	99
Es	2.115874	1.548145	-0.176643	99
Es	-0.763230	0.726567	-0.998632	99
Es	2.356634	1.710292	0.465728	99
Es	0.842202	-1.626687	-0.382490	99
Es	0.068545	-2.214374	0.334090	99
Es	3.196877	1.963766	0.819783	99
Es	-0.307188	-1.787657	-0.737100	99
Es	1.078736	1.148338	-1.136083	99
Es	-0.479466	1.471435	-0.093560	99
Es	0.996021	1.699367	-1.600112	99
Es	2.728311	1.469560	0.166959	99
Es	-0.261983	0.855865	-0.457103	99
Es	-0.062780	-0.993043	0.176941	99
Es	1.631118	1.357346	-0.622543	99
Es	0.132797	-1.649060	-0.145579	99
Es	-1.647147	-0.474313	1.163349	99
Es	2.936971	1.863571	0.579002	99
Es	0.228235	-0.193017	1.072135	99
Es	-0.261757	-0.333166	0.526126	99
Es	-1.838573	0.156361	1.517079	99
Es	-0.246892	0.265136	0.018790	99
Es	0.451779	1.002936	-0.785443	99
Es	2.609583	1.983238	0.081655	99
45
Properties=species:S:1:pos:R:3:Z:I:1 energy=-288.1639189305001 field_type=dipole dipole="0.000000 0.000000 0.000000" charge=0
C	-1.647162	-0.474318	1.163361	6
C	-0.261722	-0.333168	0.526181	6
C	0.132798	-1.649078	-0.145579	6
C	-0.262072	0.855862	-0.457069	6
C	1.078628	1.148292	-1.136209	6
C	2.116128	1.548242	-0.176409	6
N	2.937288	1.863692	0.579291	7
H	-1.930562	0.445122	1.686501	1
H	-1.658552	-1.289768	1.894381	1
H	-2.412472	-0.685418	0.408601	1
H	0.453188	-0.133008	1.333611	1
H	-0.506462	-1.861618	-1.009039	1
H	0.042188	-2.485738	0.555711	1
H	1.172178	-1.626068	-0.486579	1
H	-0.591672	1.756822	0.077881	1
H	-1.008822	0.672252	-1.240729	1
H	0.932098	1.963312	-1.855299	1
H	1.415008	0.284582	-1.718609	1
Es	-0.261984	0.855866	-0.457104	99
Es	2.475306	2.011197	0.212692	99
Es	1.316922	0.576150	-1.506930	99
Es	2.776746	1.611626	0.052735	99
Es	-0.765563	0.726230	-1.000782	99
Es	-0.962558	-0.401207	0.839038	99
Es	0.069574	-2.212113	0.333963	99
Es	-1.649671	-1.030065	1.659128	99
Es	-0.261756	-0.333165	0.526127	99
Es	-1.647147	-0.474313	1.163350	99
Es	2.440400	1.539622	0.446980	99
Es	3.199469	1.964705	0.822397	99
Es	-2.168784	-0.618707	0.639405	99
Es	2.115861	1.548143	-0.176653	99
Es	0.452028	1.002830	-0.785345	99
Es	-0.247034	0.265178	0.018925	99
Es	0.994940	1.697757	-1.600118	99
Es	-0.062927	-0.993244	0.177056	99
Es	0.842017	-1.626806	-0.380579	99
Es	1.632742	1.357777	-0.621389	99
Es	-1.836798	0.154985	1.517700	99
Es	1.078738	1.148340	-1.136079	99
Es	-0.477702	1.470018	-0.093166	99
Es	2.936975	1.863572	0.579005	99
Es	0.132797	-1.649058	-0.145580	99
Es	0.230215	-0.192417	1.074370	99
Es	-0.309325	-1.788586	-0.739467	99
45
Properties=species:S:1:pos:R:3:Z:I:1 energy=-288.1639189305001 field_type=dipole dipole="0.000000 0.000000 0.000000" charge=0
C	-1.647162	-0.474318	1.163361	6
C	-0.261722	-0.333168	0.526181	6
C	0.132798	-1.649078	-0.145579	6
C	-0.262072	0.855862	-0.457069	6
C	1.078628	1.148292	-1.136209	6
C	2.116128	1.548242	-0.176409	6
N	2.937288	1.863692	0.579291	7
H	-1.930562	0.445122	1.686501	1
H	-1.658552	-1.289768	1.894381	1
H	-2.412472	-0.685418	0.408601	1
H	0.453188	-0.133008	1.333611	1
H	-0.506462	-1.861618	-1.009039	1
H	0.042188	-2.485738	0.555711	1
H	1.172178	-1.626068	-0.486579	1
H	-0.591672	1.756822	0.077881	1
H	-1.008822	0.672252	-1.240729	1
H	0.932098	1.963312	-1.855299	1
H	1.415008	0.284582	-1.718609	1
Es	0.841794	-1.626796	-0.379529	99
Es	-0.476731	1.469110	-0.093095	99
Es	3.200755	1.965576	0.823251	99
Es	0.994361	1.696792	-1.600247	99
Es	1.633645	1.358095	-0.620744	99
Es	-0.310457	-1.789241	-0.740594	99
Es	2.773425	1.673934	0.029760	99
Es	0.452336	1.002851	-0.785327	99
Es	0.132797	-1.649059	-0.145578	99
Es	1.078739	1.148341	-1.136077	99
Es	0.070275	-2.210714	0.333753	99
Es	2.481687	1.495013	0.420806	99
Es	-0.063249	-0.993192	0.177115	99
Es	-2.169999	-0.619296	0.638320	99
Es	-0.261983	0.855864	-0.457104	99
Es	-0.766758	0.726033	-1.001873	99
Es	1.315885	0.576834	-1.506767	99
Es	-1.647147	-0.474314	1.163349	99
Es	2.115871	1.548133	-0.176659	99
Es	-0.247169	0.265254	0.019049	99
Es	-1.836019	0.154183	1.517863	99
Es	2.436261	1.992641	0.261352	99
Es	0.231413	-0.192231	1.075453	99
Es	2.936970	1.863570	0.579001	99
Es	-1.648998	-1.028769	1.658962	99
Es	-0.261756	-0.333166	0.526127	99
Es	-0.962467	-0.401131	0.839109	99
45
Properties=species:S:1:pos:R:3:Z:I:1 energy=-288.1639189305001 field_type=dipole dipole="0.000000 0.000000 0.000000" charge=0
C	-1.647162	-0.474318	1.163361	6
C	-0.261722	-0.333168	0.526181	6
C	0.132798	-1.649078	-0.145579	6
C	-0.262072	0.855862	-0.457069	6
C	1.078628	1.148292	-1.136209	6
C	2.116128	1.548242	-0.176409	6
N	2.937288	1.863692	0.579291	7
H	-1.930562	0.445122	1.686501	1
H	-1.658552	-1.289768	1.894381	1
H	-2.412472	-0.685418	0.408601	1
H	0.453188	-0.133008	1.333611	1
H	-0.506462	-1.861618	-1.009039	1
H	0.042188	-2.485738	0.555711	1
H	1.172178	-1.626068	-0.486579	1
H	-0.591672	1.756822	0.077881	1
H	-1.008822	0.672252	-1.240729	1
H	0.932098	1.963312	-1.855299	1
H	1.415008	0.284582	-1.718609	1
Es	2.368481	1.898633	0.372327	99
Es	-0.063482	-0.993289	0.177246	99
Es	-0.962556	-0.401152	0.839013	99
Es	2.936971	1.863571	0.579002	99
Es	1.315392	0.577327	-1.506756	99
Es	0.841693	-1.626685	-0.378861	99
Es	1.078739	1.148343	-1.136080	99
Es	2.115841	1.548152	-0.176628	99
Es	0.132797	-1.649059	-0.145580	99
Es	-0.311244	-1.789740	-0.741216	99
Es	3.201004	1.966237	0.824227	99
Es	2.593954	1.433681	0.325272	99
Es	-1.648441	-1.027913	1.658742	99
Es	1.633903	1.358406	-0.620111	99
Es	-0.261755	-0.333166	0.526129	99
Es	2.729020	1.828638	0.013324	99
Es	-0.261985	0.855865	-0.457104	99
Es	-2.170862	-0.619647	0.637720	99
Es	0.993989	1.696049	-1.600144	99
Es	-0.767610	0.725933	-1.002497	99
Es	-0.247246	0.265248	0.019011	99
Es	0.232136	-0.191979	1.076124	99
Es	0.452435	1.002740	-0.785414	99
Es	-1.647145	-0.474314	1.163351	99
Es	-0.475996	1.468459	-0.092994	99
Es	0.070799	-2.209697	0.333533	99
Es	-1.835349	0.153676	1.518044	99
45
Properties=species:S:1:pos:R:3:Z:I:1 energy=-288.1639189305001 field_type=dipole dipole="0.000000 0.000000 0.000000" charge=0
C	-1.647162	-0.474318	1.163361	6
C	-0.261722	-0.333168	0.526181	6
C	0.132798	-1.649078	-0.145579	6
C	-0.262072	0.855862	-0.457069	6
C	1.078628	1.148292	-1.136209	6
C	2.116128	1.548242	-0.176409	6
N	2.937288	1.863692	0.579291	7
H	-1.930562	0.445122	1.686501	1
H	-1.658552	-1.289768	1.894381	1
H	-2.412472	-0.685418	0.408601	1
H	0.453188	-0.133008	1.333611	1
H	-0.506462	-1.861618	-1.009039	1
H	0.042188	-2.485738	0.555711	1
H	1.172178	-1.626068	-0.486579	1
H	-0.591672	1.756822	0.077881	1
H	-1.008822	0.672252	-1.240729	1
H	0.932098	1.963312	-1.855299	1
H	1.415008	0.284582	-1.718609	1
Es	2.740765	1.796676	0.014033	99
Es	-1.834876	0.153325	1.518112	99
Es	1.314822	0.577914	-1.506452	99
Es	0.841733	-1.626677	-0.378285	99
Es	2.936971	1.863571	0.579001	99
Es	2.570094	1.439628	0.347953	99
Es	-1.648085	-1.027202	1.658582	99
Es	-0.475599	1.467911	-0.093060	99
Es	-0.311835	-1.790190	-0.741635	99
Es	-2.171402	-0.619960	0.637256	99
Es	-0.063543	-0.993445	0.177210	99
Es	-0.962704	-0.401175	0.838996	99
Es	3.201497	1.966956	0.824249	99
Es	-0.768106	0.725794	-1.002963	99
Es	0.071057	-2.208739	0.333393	99
Es	1.078739	1.148339	-1.136079	99
Es	2.115856	1.548142	-0.176655	99
Es	-0.261985	0.855865	-0.457104	99
Es	-1.647146	-0.474315	1.163349	99
Es	1.634375	1.358436	-0.619833	99
Es	-0.247356	0.265212	0.019086	99
Es	-0.261755	-0.333164	0.526127	99
Es	0.132797	-1.649059	-0.145580	99
Es	0.993736	1.695507	-1.600332	99
Es	2.380221	1.923977	0.349018	99
Es	0.232579	-0.191682	1.076582	99
Es	0.452632	1.002673	-0.785289	99
45
Properties=species:S:1:pos:R:3:Z:I:1 energy=-288.1639189305001 field_type=dipole dipole="0.000000 0.000000 0.000000" charge=0
C	-1.647162	-0.474318	1.163361	6
C	-0.261722	-0.333168	0.526181	6
C	0.132798	-1.649078	-0.145579	6
C	-0.262072	0.855862	-0.457069	6
C	1.078628	1.148292	-1.136209	6
C	2.116128	1.548242	-0.176409	6
N	2.937288	1.863692	0.579291	7
H	-1.930562	0.445122	1.686501	1
H	-1.658552	-1.289768	1.894381	1
H	-2.412472	-0.685418	0.408601	1
H	0.453188	-0.133008	1.333611	1
H	-0.506462	-1.861618	-1.009039	1
H	0.042188	-2.485738	0.555711	1
H	1.172178	-1.626068	-0.486579	1
H	-0.591672	1.756822	0.077881	1
H	-1.008822	0.672252	-1.240729	1
H	0.932098	1.963312	-1.855299	1
H	1.415008	0.284582	-1.718609	1
Es	3.201890	1.967155	0.824552	99
Es	-0.312260	-1.790415	-0.741976	99
Es	0.071377	-2.208169	0.333186	99
Es	-0.247338	0.265247	0.018879	99
Es	2.936971	1.863571	0.579002	99
Es	-0.768565	0.725728	-1.003269	99
Es	0.132797	-1.649059	-0.145580	99
Es	-0.063585	-0.993455	0.177350	99
Es	2.543155	1.451981	0.371435	99
Es	-0.261756	-0.333165	0.526127	99
Es	0.232923	-0.191564	1.076955	99
Es	-0.962562	-0.401181	0.838872	99
Es	-2.171973	-0.620118	0.637033	99
Es	-1.647149	-0.474314	1.163351	99
Es	-1.834478	0.152832	1.518114	99
Es	1.314386	0.578203	-1.506498	99
Es	2.395422	1.947992	0.322498	99
Es	-1.647750	-1.026664	1.658490	99
Es	1.634841	1.358334	-0.619652	99
Es	0.841553	-1.626649	-0.377881	99
Es	0.993412	1.695126	-1.600194	99
Es	0.452836	1.002936	-0.785281	99
Es	2.752032	1.760296	0.016884	99
Es	1.078739	1.148339	-1.136079	99
Es	2.115860	1.548147	-0.176652	99
Es	-0.261986	0.855862	-0.457103	99
Es	-0.475311	1.467319	-0.092888	99
45
Properties=species:S:1:pos:R:3:Z:I:1 energy=-288.1639189305001 field_type=dipole dipole="0.000000 0.000000 0.000000" charge=0
C	-1.647162	-0.474318	1.163361	6
C	-0.261722	-0.333168	0.526181	6
C	0.132798	-1.649078	-0.145579	6
C	-0.262072	0.855862	-0.457069	6
C	1.078628	1.148292	-1.136209	6
C	2.116128	1.548242	-0.176409	6
N	2.937288	1.863692	0.579291	7
H	-1.930562	0.445122	1.686501	1
H	-1.658552	-1.289768	1.894381	1
H	-2.412472	-0.685418	0.408601	1
H	0.453188	-0.133008	1.333611	1
H	-0.506462	-1.861618	-1.009039	1
H	0.042188	-2.485738	0.555711	1
H	1.172178	-1.626068	-0.486579	1
H	-0.591672	1.756822	0.077881	1
H	-1.008822	0.672252	-1.240729	1
H	0.932098	1.963312	-1.855299	1
H	1.415008	0.284582	-1.718609	1
Es	-0.475013	1.467005	-0.093071	99
Es	-0.261984	0.855864	-0.457105	99
Es	-1.647147	-0.474314	1.163349	99
Es	-1.834151	0.152634	1.518213	99
Es	-0.962653	-0.401268	0.838869	99
Es	3.202330	1.967182	0.824462	99
Es	0.993201	1.694793	-1.600289	99
Es	0.841604	-1.626666	-0.377525	99
Es	0.233197	-0.191353	1.077227	99
Es	2.115859	1.548125	-0.176656	99
Es	1.314047	0.578383	-1.506316	99
Es	1.078738	1.148339	-1.136078	99
Es	-0.247455	0.265184	0.019231	99
Es	-2.172280	-0.620318	0.636755	99
Es	-0.312634	-1.790743	-0.742147	99
Es	1.635057	1.358454	-0.619527	99
Es	-0.768852	0.725640	-1.003528	99
Es	2.396807	1.947174	0.321627	99
Es	-1.647535	-1.026178	1.658288	99
Es	0.071560	-2.207500	0.332923	99
Es	-0.261756	-0.333164	0.526127	99
Es	-0.063654	-0.993535	0.177288	99
Es	2.542131	1.452448	0.372011	99
Es	0.132797	-1.649059	-0.145580	99
Es	2.751248	1.760634	0.017406	99
Es	2.936973	1.863571	0.579003	99
Es	0.453046	1.002986	-0.785278	99
45
Properties=species:S:1:pos:R:3:Z:I:1 energy=-288.1639189305001 field_type=dipole dipole="0.000000 0.000000 0.000000" charge=0
C	-1.647162	-0.474318	1.163361	6
C	-0.261722	-0.333168	0.526181	6
C	0.132798	-1.649078	-0.145579	6
C	-0.262072	0.855862	-0.457069	6
C	1.078628	1.148292	-1.136209	6
C	2.116128	1.548242	-0.176409	6
N	2.937288	1.863692	0.579291	7
H	-1.930562	0.445122	1.686501	1
H	-1.658552	-1.289768	1.894381	1
H	-2.412472	-0.685418	0.408601	1
H	0.453188	-0.133008	1.333611	1
H	-0.506462	-1.861618	-1.009039	1
H	0.042188	-2.485738	0.555711	1
H	1.172178	-1.626068	-0.486579	1
H	-0.591672	1.756822	0.077881	1
H	-1.008822	0.672252	-1.240729	1
H	0.932098	1.963312	-1.855299	1
H	1.415008	0.284582	-1.718609	1
Es	-1.833955	0.152458	1.518252	99
Es	0.993116	1.694485	-1.600208	99
Es	-0.312929	-1.790999	-0.742259	99
Es	2.464448	1.514673	0.429139	99
Es	0.233401	-0.191247	1.077392	99
Es	2.115859	1.548133	-0.176659	99
Es	0.453118	1.003078	-0.785366	99
Es	1.313769	0.578543	-1.506299	99
Es	-0.474767	1.466749	-0.093025	99
Es	0.841692	-1.626744	-0.377227	99
Es	2.936971	1.863571	0.579002	99
Es	2.458110	1.997282	0.234608	99
Es	-0.247467	0.265244	0.019157	99
Es	-2.172503	-0.620490	0.636595	99
Es	0.132797	-1.649058	-0.145580	99
Es	-0.063822	-0.993710	0.177340	99
Es	-0.769114	0.725554	-1.003710	99
Es	-0.261756	-0.333165	0.526128	99
Es	1.078739	1.148341	-1.136079	99
Es	-1.647145	-0.474312	1.163349	99
Es	1.635336	1.358161	-0.619353	99
Es	-0.261983	0.855864	-0.457104	99
Es	3.202984	1.966758	0.824432	99
Es	-0.962559	-0.401171	0.838885	99
Es	2.766860	1.649062	0.047421	99
Es	0.071644	-2.206919	0.332688	99
Es	-1.647363	-1.025825	1.658161	99
45
Properties=species:S:1:pos:R:3:Z:I:1 energy=-288.1639189305001 field_type=dipole dipole="0.000000 0.000000 0.000000" charge=0
C	-1.647162	-0.474318	1.163361	6
C	-0.261722	-0.333168	0.526181	6
C	0.132798	-1.649078	-0.145579	6
C	-0.262072	0.855862	-0.457069	6
C	1.078628	1.148292	-1.136209	6
C	2.116128	1.548242	-0.176409	6
N	2.937288	1.863692	0.579291	7
H	-1.930562	0.445122	1.686501	1
H	-1.658552	-1.289768	1.894381	1
H	-2.412472	-0.685418	0.408601	1
H	0.453188	-0.133008	1.333611	1
H	-0.506462	-1.861618	-1.009039	1
H	0.042188	-2.485738	0.555711	1
H	1.172178	-1.626068	-0.486579	1
H	-0.591672	1.756822	0.077881	1
H	-1.008822	0.672252	-1.240729	1
H	0.932098	1.963312	-1.855299	1
H	1.415008	0.284582	-1.718609	1
Es	-2.172719	-0.620562	0.636433	99
Es	-1.647159	-1.025586	1.658195	99
Es	2.547890	1.449627	0.366631	99
Es	0.841571	-1.626589	-0.376907	99
Es	2.747145	1.767208	0.019303	99
Es	0.992972	1.694226	-1.600373	99
Es	2.115859	1.548135	-0.176660	99
Es	-1.647147	-0.474315	1.163350	99
Es	-1.833757	0.152178	1.518162	99
Es	2.395089	1.942238	0.325063	99
Es	-0.247472	0.265264	0.019115	99
Es	-0.962704	-0.401120	0.838808	99
Es	-0.769339	0.725491	-1.003870	99
Es	-0.474629	1.466351	-0.093120	99
Es	-0.313120	-1.791121	-0.742499	99
Es	1.078740	1.148340	-1.136078	99
Es	1.313642	0.578969	-1.506040	99
Es	0.453237	1.002971	-0.785318	99
Es	0.233628	-0.191233	1.077576	99
Es	-0.261984	0.855865	-0.457105	99
Es	1.635330	1.358514	-0.619193	99
Es	2.936977	1.863576	0.579010	99
Es	0.071810	-2.206585	0.332702	99
Es	-0.261755	-0.333164	0.526130	99
Es	3.202458	1.968416	0.824585	99
Es	0.132797	-1.649060	-0.145580	99
Es	-0.063879	-0.993715	0.177360	99
45
Properties=species:S:1:pos:R:3:Z:I:1 energy=-288.1639189305001 field_type=dipole dipole="0.000000 0.000000 0.000000" charge=0
C	-1.647162	-0.474318	1.163361	6
C	-0.261722	-0.333168	0.526181	6
C	0.132798	-1.649078	-0.145579	6
C	-0.262072	0.855862	-0.457069	6
C	1.078628	1.148292	-1.136209	6
C	2.116128	1.548242	-0.176409	6
N	2.937288	1.863692	0.579291	7
H	-1.930562	0.445122	1.686501	1
H	-1.658552	-1.289768	1.894381	1
H	-2.412472	-0.685418	0.408601	1
H	0.453188	-0.133008	1.333611	1
H	-0.506462	-1.861618	-1.009039	1
H	0.042188	-2.485738	0.555711	1
H	1.172178	-1.626068	-0.486579	1
H	-0.591672	1.756822	0.077881	1
H	-1.008822	0.672252	-1.240729	1
H	0.932098	1.963312	-1.855299	1
H	1.415008	0.284582	-1.718609	1
Es	0.071921	-2.206113	0.332357	99
Es	0.453493	1.003112	-0.785316	99
Es	1.635547	1.358152	-0.619085	99
Es	2.482651	1.496345	0.417010	99
Es	1.078738	1.148339	-1.136082	99
Es	0.132797	-1.649059	-0.145580	99
Es	1.313370	0.578899	-1.505916	99
Es	3.203216	1.967384	0.824461	99
Es	-0.247575	0.265208	0.019108	99
Es	2.442577	1.989011	0.254375	99
Es	-0.261755	-0.333166	0.526126	99
Es	-0.261984	0.855863	-0.457106	99
Es	2.115853	1.548132	-0.176654	99
Es	2.936972	1.863571	0.579003	99
Es	-0.063884	-0.993694	0.177534	99
Es	-2.172930	-0.620672	0.636328	99
Es	-0.962718	-0.401229	0.838863	99
Es	0.233840	-0.191060	1.077632	99
Es	-0.474424	1.466150	-0.093077	99
Es	-1.647077	-1.025242	1.657953	99
Es	0.841533	-1.626767	-0.376669	99
Es	2.764000	1.675108	0.039800	99
Es	-0.769536	0.725474	-1.003982	99
Es	-0.313362	-1.791317	-0.742596	99
Es	-1.647147	-0.474314	1.163349	99
Es	0.992876	1.694105	-1.600458	99
Es	-1.833512	0.152093	1.518302	99
45
Properties=species:S:1:pos:R:3:Z:I:1 energy=-288.1639189305001 field_type=dipole dipole="0.000000 0.000000 0.000000" charge=0
C	-1.647162	-0.474318	1.163361	6
C	-0.261722	-0.333168	0.526181	6
C	0.132798	-1.649078	-0.145579	6
C	-0.262072	0.855862	-0.457069	6
C	1.078628	1.148292	-1.136209	6
C	2.116128	1.548242	-0.176409	6
N	2.937288	1.863692	0.579291	7
H	-1.930562	0.445122	1.686501	1
H	-1.658552	-1.289768	1.894381	1
H	-2.412472	-0.685418	0.408601	1
H	0.453188	-0.133008	1.333611	1
H	-0.506462	-1.861618	-1.009039	1
H	0.042188	-2.485738	0.555711	1
H	1.172178	-1.626068	-0.486579	1
H	-0.591672	1.756822	0.077881	1
H	-1.008822	0.672252	-1.240729	1
H	0.932098	1.963312	-1.855299	1
H	1.415008	0.284582	-1.718609	1
Es	1.313276	0.579185	-1.505833	99
Es	1.078739	1.148340	-1.136077	99
Es	2.704150	1.864544	0.024408	99
Es	-0.247393	0.265233	0.019354	99
Es	2.115855	1.548133	-0.176658	99
Es	-0.962790	-0.401168	0.838758	99
Es	-0.261756	-0.333165	0.526126	99
Es	0.132797	-1.649059	-0.145580	99
Es	-1.833492	0.151957	1.518297	99
Es	-0.313623	-1.791649	-0.742545	99
Es	-0.063994	-0.993744	0.177485	99
Es	1.635393	1.358504	-0.618841	99
Es	-2.173054	-0.620959	0.636262	99
Es	2.369399	1.863661	0.386663	99
Es	-1.647148	-0.474313	1.163350	99
Es	2.936971	1.863571	0.579002	99
Es	0.453396	1.003160	-0.785338	99
Es	0.072018	-2.205563	0.332110	99
Es	-0.261985	0.855864	-0.457105	99
Es	0.233920	-0.191047	1.077803	99
Es	0.992757	1.693816	-1.600437	99
Es	3.202473	1.967844	0.825293	99
Es	2.616738	1.431589	0.299096	99
Es	-1.646876	-1.024919	1.657859	99
Es	0.841737	-1.626720	-0.376482	99
Es	-0.769638	0.725262	-1.004064	99
Es	-0.474390	1.465959	-0.093227	99
45
Properties=species:S:1:pos:R:3:Z:I:1 energy=-288.1639189305001 field_type=dipole dipole="0.000000 0.000000 0.000000" charge=0
C	-1.647162	-0.474318	1.163361	6
C	-0.261722	-0.333168	0.526181	6
C	0.132798	-1.649078	-0.145579	6
C	-0.262072	0.855862	-0.457069	6
C	1.078628	1.148292	-1.136209	6
C	2.116128	1.548242	-0.176409	6
N	2.937288	1.863692	0.579291	7
H	-1.930562	0.445122	1.686501	1
H	-1.658552	-1.289768	1.894381	1
H	-2.412472	-0.685418	0.408601	1
H	0.453188	-0.133008	1.333611	1
H	-0.506462	-1.861618	-1.009039	1
H	0.042188	-2.485738	0.555711	1
H	1.172178	-1.626068	-0.486579	1
H	-0.591672	1.756822	0.077881	1
H	-1.008822	0.672252	-1.240729	1
H	0.932098	1.963312	-1.855299	1
H	1.415008	0.284582	-1.718609	1
Es	-1.647147	-0.474314	1.163349	99
Es	-0.064102	-0.993851	0.177330	99
Es	0.234025	-0.190901	1.077896	99
Es	-0.474158	1.465773	-0.093092	99
Es	3.202850	1.968071	0.824971	99
Es	0.072058	-2.205316	0.332026	99
Es	-1.833183	0.151800	1.518379	99
Es	0.841700	-1.626735	-0.376277	99
Es	-0.769848	0.725360	-1.004131	99
Es	-2.173278	-0.620854	0.636185	99
Es	2.578906	1.437029	0.337312	99
Es	1.078739	1.148339	-1.136077	99
Es	-0.313676	-1.791786	-0.742661	99
Es	2.115864	1.548136	-0.176667	99
Es	-1.646811	-1.024755	1.657721	99
Es	2.382591	1.905626	0.355091	99
Es	2.728408	1.816824	0.018162	99
Es	-0.261986	0.855864	-0.457105	99
Es	1.312986	0.579103	-1.505854	99
Es	-0.261755	-0.333164	0.526128	99
Es	0.992436	1.693779	-1.600401	99
Es	1.635524	1.358593	-0.618831	99
Es	2.936971	1.863571	0.579002	99
Es	-0.247581	0.265219	0.019329	99
Es	0.453885	1.003155	-0.785252	99
Es	0.132797	-1.649060	-0.145580	99
Es	-0.962736	-0.401189	0.838725	99
45
Properties=species:S:1:pos:R:3:Z:I:1 energy=-288.1639189305001 field_type=dipole dipole="0.000000 0.000000 0.000000" charge=0
C	-1.647162	-0.474318	1.163361	6
C	-0.261722	-0.333168	0.526181	6
C	0.132798	-1.649078	-0.145579	6
C	-0.262072	0.855862	-0.457069	6
C	1.078628	1.148292	-1.136209	6
C	2.116128	1.548242	-0.176409	6
N	2.937288	1.863692	0.579291	7
H	-1.930562	0.445122	1.686501	1
H	-1.658552	-1.289768	1.894381	1
H	-2.412472	-0.685418	0.408601	1
H	0.453188	-0.133008	1.333611	1
H	-0.506462	-1.861618	-1.009039	1
H	0.042188	-2.485738	0.555711	1
H	1.172178	-1.626068	-0.486579	1
H	-0.591672	1.756822	0.077881	1
H	-1.008822	0.672252	-1.240729	1
H	0.932098	1.963312	-1.855299	1
H	1.415008	0.284582	-1.718609	1
Es	-1.647148	-0.474314	1.163349	99
Es	-2.173381	-0.621046	0.636174	99
Es	0.841707	-1.626562	-0.376203	99
Es	2.936973	1.863571	0.579004	99
Es	2.366780	1.764214	0.431255	99
Es	-0.962681	-0.401174	0.838708	99
Es	0.992595	1.693498	-1.600447	99
Es	-0.769937	0.725343	-1.004158	99
Es	-0.064121	-0.993899	0.177269	99
Es	0.453685	1.003135	-0.785223	99
Es	0.072158	-2.205149	0.332112	99
Es	2.683272	1.451184	0.219716	99
Es	-0.247654	0.265131	0.019324	99
Es	1.635580	1.358128	-0.618606	99
Es	-0.313894	-1.791773	-0.742685	99
Es	0.234233	-0.190885	1.077926	99
Es	2.640645	1.944951	0.058275	99
Es	1.313064	0.579575	-1.505680	99
Es	-0.261985	0.855864	-0.457104	99
Es	-1.833203	0.151615	1.518249	99
Es	-0.474212	1.465407	-0.093187	99
Es	2.115854	1.548135	-0.176658	99
Es	-0.261755	-0.333166	0.526130	99
Es	0.132796	-1.649059	-0.145580	99
Es	-1.646755	-1.024486	1.657757	99
Es	3.202125	1.967737	0.826037	99
Es	1.078739	1.148340	-1.136076	99
45
Properties=species:S:1:pos:R:3:Z:I:1 energy=-288.1639189305001 field_type=dipole dipole="0.000000 0.000000 0.000000" charge=0
C	-1.647162	-0.474318	1.163361	6
C	-0.261722	-0.333168	0.526181	6
C	0.132798	-1.649078	-0.145579	6
C	-0.262072	0.855862	-0.457069	6
C	1.078628	1.148292	-1.136209	6
C	2.116128	1.548242	-0.176409	6
N	2.937288	1.863692	0.579291	7
H	-1.930562	0.445122	1.686501	1
H	-1.658552	-1.289768	1.894381	1
H	-2.412472	-0.685418	0.408601	1
H	0.453188	-0.133008	1.333611	1
H	-0.506462	-1.861618	-1.009039	1
H	0.042188	-2.485738	0.555711	1
H	1.172178	-1.626068	-0.486579	1
H	-0.591672	1.756822	0.077881	1
H	-1.008822	0.672252	-1.240729	1
H	0.932098	1.963312	-1.855299	1
H	1.415008	0.284582	-1.718609	1
Es	-0.770032	0.725278	-1.004277	99
Es	1.635649	1.358103	-0.618475	99
Es	-0.474097	1.465253	-0.093198	99
Es	0.072217	-2.204972	0.331957	99
Es	0.132797	-1.649060	-0.145580	99
Es	-2.173462	-0.621104	0.636106	99
Es	2.936971	1.863570	0.579001	99
Es	0.453648	1.003202	-0.785225	99
Es	-1.646644	-1.024353	1.657578	99
Es	-1.833055	0.151614	1.518386	99
Es	1.312901	0.579704	-1.505660	99
Es	0.992650	1.693277	-1.600374	99
Es	-0.247635	0.265255	0.019258	99
Es	-0.261754	-0.333165	0.526128	99
Es	-1.647147	-0.474314	1.163350	99
Es	2.637451	1.948156	0.059975	99
Es	-0.063809	-0.993683	0.177455	99
Es	0.841564	-1.626743	-0.376111	99
Es	2.685348	1.453718	0.216637	99
Es	1.078741	1.148337	-1.136077	99
Es	-0.261984	0.855863	-0.457105	99
Es	2.367786	1.758512	0.432630	99
Es	-0.314007	-1.791811	-0.742740	99
Es	-0.962936	-0.401399	0.838659	99
Es	2.115851	1.548137	-0.176657	99
Es	3.202260	1.967734	0.826032	99
Es	0.234207	-0.190792	1.078004	99
45
Properties=species:S:1:pos:R:3:Z:I:1 energy=-288.1639189305001 field_type=dipole dipole="0.000000 0.000000 0.000000" charge=0
C	-1.647162	-0.474318	1.163361	6
C	-0.261722	-0.333168	0.526181	6
C	0.132798	-1.649078	-0.145579	6
C	-0.262072	0.855862	-0.457069	6
C	1.078628	1.148292	-1.136209	6
C	2.116128	1.548242	-0.176409	6
N	2.937288	1.863692	0.579291	7
H	-1.930562	0.445122	1.686501	1
H	-1.658552	-1.289768	1.894381	1
H	-2.412472	-0.685418	0.408601	1
H	0.453188	-0.133008	1.333611	1
H	-0.506462	-1.861618	-1.009039	1
H	0.042188	-2.485738	0.555711	1
H	1.172178	-1.626068	-0.486579	1
H	-0.591672	1.756822	0.077881	1
H	-1.008822	0.672252	-1.240729	1
H	0.932098	1.963312	-1.855299	1
H	1.415008	0.284582	-1.718609	1
Es	-0.261984	0.855864	-0.457105	99
Es	-0.770122	0.725243	-1.004317	99
Es	0.454036	1.003053	-0.785212	99
Es	-0.962871	-0.401209	0.838757	99
Es	0.841971	-1.626882	-0.375742	99
Es	0.234391	-0.190677	1.077982	99
Es	-0.064241	-0.994016	0.177397	99
Es	1.312757	0.579577	-1.505777	99
Es	2.672205	1.911299	0.037748	99
Es	2.115843	1.548154	-0.176654	99
Es	-1.647147	-0.474314	1.163349	99
Es	3.202479	1.968151	0.825769	99
Es	2.936971	1.863571	0.579002	99
Es	0.132797	-1.649061	-0.145581	99
Es	-0.261755	-0.333165	0.526129	99
Es	-0.473937	1.465314	-0.093022	99
Es	-1.646620	-1.024109	1.657354	99
Es	-1.832897	0.151571	1.518522	99
Es	2.367915	1.810541	0.411226	99
Es	1.635594	1.358541	-0.618497	99
Es	1.078737	1.148338	-1.136080	99
Es	-2.173576	-0.621173	0.636041	99
Es	2.650345	1.437706	0.260625	99
Es	-0.247604	0.265089	0.019205	99
Es	0.992262	1.693341	-1.600277	99
Es	0.072018	-2.204358	0.331597	99
Es	-0.314089	-1.792073	-0.742762	99
45
Properties=species:S:1:pos:R:3:Z:I:1 energy=-288.1639189305001 field_type=dipole dipole="0.000000 0.000000 0.000000" charge=0
C	-1.647162	-0.474318	1.163361	6
C	-0.261722	-0.333168	0.526181	6
C	0.132798	-1.649078	-0.145579	6
C	-0.262072	0.855862	-0.457069	6
C	1.078628	1.148292	-1.136209	6
C	2.116128	1.548242	-0.176409	6
N	2.937288	1.863692	0.579291	7
H	-1.930562	0.445122	1.686501	1
H	-1.658552	-1.289768	1.894381	1
H	-2.412472	-0.685418	0.408601	1
H	0.453188	-0.133008	1.333611	1
H	-0.506462	-1.861618	-1.009039	1
H	0.042188	-2.485738	0.555711	1
H	1.172178	-1.626068	-0.486579	1
H	-0.591672	1.756822	0.077881	1
H	-1.008822	0.672252	-1.240729	1
H	0.932098	1.963312	-1.855299	1
H	1.415008	0.284582	-1.718609	1
Es	2.936970	1.863571	0.579001	99
Es	-0.064358	-0.994120	0.177500	99
Es	3.203335	1.967006	0.825377	99
Es	0.234364	-0.190617	1.078110	99
Es	-2.173619	-0.621446	0.636029	99
Es	-0.261985	0.855864	-0.457105	99
Es	0.841803	-1.626822	-0.375755	99
Es	2.523700	2.006007	0.157881	99
Es	-1.647147	-0.474314	1.163349	99
Es	-0.314218	-1.792307	-0.742725	99
Es	0.072321	-2.204206	0.331312	99
Es	2.750253	1.566894	0.101480	99
Es	1.635919	1.358212	-0.618599	99
Es	0.132795	-1.649058	-0.145580	99
Es	-0.247621	0.265208	0.019361	99
Es	-0.770129	0.725054	-1.004364	99
Es	-1.832821	0.151662	1.518516	99
Es	-0.473950	1.465302	-0.093047	99
Es	0.454153	1.003379	-0.785249	99
Es	2.415309	1.588281	0.450822	99
Es	1.312576	0.579356	-1.505733	99
Es	-0.962862	-0.401115	0.838660	99
Es	2.115857	1.548135	-0.176661	99
Es	0.992197	1.693163	-1.600278	99
Es	1.078739	1.148339	-1.136079	99
Es	-0.261755	-0.333165	0.526128	99
Es	-1.646346	-1.023950	1.657328	99
45
Properties=species:S:1:pos:R:3:Z:I:1 energy=-288.1639189305001 field_type=dipole dipole="0.000000 0.000000 0.000000" charge=0
C	-1.647162	-0.474318	1.163361	6
C	-0.261722	-0.333168	0.526181	6
C	0.132798	-1.649078	-0.145579	6
C	-0.262072	0.855862	-0.457069	6
C	1.078628	1.148292	-1.136209	6
C	2.116128	1.548242	-0.176409	6
N	2.937288	1.863692	0.579291	7
H	-1.930562	0.445122	1.686501	1
H	-1.658552	-1.289768	1.894381	1
H	-2.412472	-0.685418	0.408601	1
H	0.453188	-0.133008	1.333611	1
H	-0.506462	-1.861618	-1.009039	1
H	0.042188	-2.485738	0.555711	1
H	1.172178	-1.626068	-0.486579	1
H	-0.591672	1.756822	0.077881	1
H	-1.008822	0.672252	-1.240729	1
H	0.932098	1.963312	-1.855299	1
H	1.415008	0.284582	-1.718609	1
Es	0.453975	1.003234	-0.785241	99
Es	3.202964	1.967849	0.825502	99
Es	1.078740	1.148340	-1.136076	99
Es	-2.173713	-0.621189	0.635927	99
Es	-1.646621	-1.023829	1.657190	99
Es	-0.261987	0.855866	-0.457104	99
Es	0.841907	-1.626649	-0.375596	99
Es	0.132796	-1.649059	-0.145578	99
Es	0.072214	-2.204142	0.331536	99
Es	-0.261754	-0.333166	0.526129	99
Es	1.636243	1.358337	-0.618896	99
Es	-0.064239	-0.994265	0.177316	99
Es	0.992366	1.693031	-1.600235	99
Es	2.759074	1.662490	0.052101	99
Es	-1.647147	-0.474314	1.163348	99
Es	-0.473842	1.464954	-0.093051	99
Es	-0.770272	0.725154	-1.004439	99
Es	-0.962687	-0.401207	0.838712	99
Es	-0.247652	0.265079	0.019284	99
Es	-0.314318	-1.792124	-0.742825	99
Es	-1.832789	0.151286	1.518561	99
Es	0.234465	-0.190483	1.078128	99
Es	2.455959	1.994499	0.236796	99
Es	2.474335	1.503135	0.421556	99
Es	2.115856	1.548136	-0.176662	99
Es	1.312635	0.579782	-1.505705	99
Es	2.936971	1.863571	0.579002	99
45
Properties=species:S:1:pos:R:3:Z:I:1 energy=-288.1639189305001 field_type=dipole dipole="0.000000 0.000000 0.000000" charge=0
C	-1.647162	-0.474318	1.163361	6
C	-0.261722	-0.333168	0.526181	6
C	0.132798	-1.649078	-0.145579	6
C	-0.262072	0.855862	-0.457069	6
C	1.078628	1.148292	-1.136209	6
C	2.116128	1.548242	-0.176409	6
N	2.937288	1.863692	0.579291	7
H	-1.930562	0.445122	1.686501	1
H	-1.658552	-1.289768	1.894381	1
H	-2.412472	-0.685418	0.408601	1
H	0.453188	-0.133008	1.333611	1
H	-0.506462	-1.861618	-1.009039	1
H	0.042188	-2.485738	0.555711	1
H	1.172178	-1.626068	-0.486579	1
H	-0.591672	1.756822	0.077881	1
H	-1.008822	0.672252	-1.240729	1
H	0.932098	1.963312	-1.855299	1
H	1.415008	0.284582	-1.718609	1
Es	-0.473798	1.465026	-0.092932	99
Es	2.506065	2.007337	0.175999	99
Es	1.078740	1.148339	-1.136076	99
Es	2.429732	1.563556	0.445374	99
Es	2.753589	1.589862	0.088774	99
Es	2.936970	1.863570	0.579001	99
Es	0.234501	-0.190470	1.078187	99
Es	-0.314388	-1.792369	-0.742794	99
Es	2.115855	1.548134	-0.176660	99
Es	1.636136	1.358235	-0.618646	99
Es	-0.962665	-0.401202	0.838731	99
Es	0.841882	-1.626815	-0.375522	99
Es	0.454154	1.003158	-0.785237	99
Es	-1.647147	-0.474314	1.163348	99
Es	-0.247744	0.265216	0.019215	99
Es	-0.770306	0.725028	-1.004442	99
Es	-1.646459	-1.023630	1.656961	99
Es	-0.261754	-0.333165	0.526132	99
Es	0.072300	-2.203861	0.331231	99
Es	3.203117	1.967375	0.825581	99
Es	-2.173747	-0.621408	0.635903	99
Es	0.992214	1.692954	-1.600207	99
Es	0.132797	-1.649059	-0.145580	99
Es	-0.064397	-0.994234	0.177407	99
Es	-0.261984	0.855863	-0.457105	99
Es	1.312509	0.579775	-1.505695	99
Es	-1.832693	0.151416	1.518732	99
45
Properties=species:S:1:pos:R:3:Z:I:1 energy=-288.1639189305001 field_type=dipole dipole="0.000000 0.000000 0.000000" charge=0
C	-1.647162	-0.474318	1.163361	6
C	-0.261722	-0.333168	0.526181	6
C	0.132798	-1.649078	-0.145579	6
C	-0.262072	0.855862	-0.457069	6
C	1.078628	1.148292	-1.136209	6
C	2.116128	1.548242	-0.176409	6
N	2.937288	1.863692	0.579291	7
H	-1.930562	0.445122	1.686501	1
H	-1.658552	-1.289768	1.894381	1
H	-2.412472	-0.685418	0.408601	1
H	0.453188	-0.133008	1.333611	1
H	-0.506462	-1.861618	-1.009039	1
H	0.042188	-2.485738	0.555711	1
H	1.172178	-1.626068	-0.486579	1
H	-0.591672	1.756822	0.077881	1
H	-1.008822	0.672252	-1.240729	1
H	0.932098	1.963312	-1.855299	1
H	1.415008	0.284582	-1.718609	1
Es	0.072310	-2.203577	0.331202	99
Es	-0.314478	-1.792474	-0.742858	99
Es	2.380266	1.881818	0.368442	99
Es	2.936977	1.863573	0.579007	99
Es	-0.962949	-0.401165	0.838696	99
Es	1.078737	1.148339	-1.136081	99
Es	0.454356	1.003116	-0.785106	99
Es	0.132797	-1.649059	-0.145580	99
Es	-1.832511	0.151277	1.518542	99
Es	-2.173856	-0.621354	0.635847	99
Es	0.991984	1.693006	-1.600327	99
Es	-0.473760	1.464830	-0.093202	99
Es	-0.064477	-0.994265	0.177467	99
Es	3.202853	1.968108	0.825640	99
Es	0.841938	-1.626740	-0.375309	99
Es	-0.770330	0.725048	-1.004520	99
Es	0.234630	-0.190543	1.078201	99
Es	2.115857	1.548128	-0.176658	99
Es	-0.261984	0.855863	-0.457105	99
Es	1.635917	1.358499	-0.618432	99
Es	-1.646273	-1.023641	1.657159	99
Es	-0.261754	-0.333165	0.526129	99
Es	2.596785	1.432314	0.318563	99
Es	-0.247728	0.265185	0.019311	99
Es	2.712947	1.845518	0.022858	99
Es	1.312376	0.579993	-1.505556	99
Es	-1.647147	-0.474314	1.163349	99
