30
Properties=species:S:1:pos:R:3:Z:I:1 energy=-173.3166637784496 field_type=dipole dipole="0.000000 0.000000 0.000000" charge=0
C	-1.300289	-0.239857	0.420012	6
N	0.161661	-0.232907	0.416952	7
C	0.673681	-0.956407	-0.745708	6
C	0.666212	1.139203	0.427842	6
H	-1.685889	0.265693	1.312772	1
H	-1.680459	-1.267307	0.453232	1
H	-1.719949	0.254393	-0.464148	1
H	0.330842	-1.997367	-0.733098	1
H	1.769141	-0.987287	-0.728378	1
H	0.356761	-0.500697	-1.691238	1
H	0.315932	1.671343	1.319712	1
H	0.350892	1.704843	-0.456908	1
H	1.761461	1.146353	0.468952	1
Es	0.371372	-0.528980	-0.113002	99
Es	0.451371	-0.636768	-1.399133	99
Es	0.273257	-0.393566	0.704502	99
Es	0.445016	1.527581	-0.187595	99
Es	1.413427	1.140575	0.448455	99
Es	-1.586794	0.103945	-0.194982	99
Es	0.419559	1.501451	1.033400	99
Es	0.368214	0.374866	0.393087	99
Es	1.420967	-0.969303	-0.734714	99
Es	0.432134	-1.663734	-0.738000	99
Es	-0.479953	-0.220042	0.389834	99
Es	0.673640	-0.956349	-0.745613	99
Es	-1.300170	-0.239856	0.420014	99
Es	-1.556284	-0.942019	0.435274	99
Es	0.666171	1.139091	0.427842	99
Es	-1.560014	0.112018	1.026188	99
Es	0.161468	-0.232622	0.416441	99
30
Properties=species:S:1:pos:R:3:Z:I:1 energy=-173.3166637784496 field_type=dipole dipole="0.000000 0.000000 0.000000" charge=0
C	-1.300289	-0.239857	0.420012	6
N	0.161661	-0.232907	0.416952	7
C	0.673681	-0.956407	-0.745708	6
C	0.666212	1.139203	0.427842	6
H	-1.685889	0.265693	1.312772	1
H	-1.680459	-1.267307	0.453232	1
H	-1.719949	0.254393	-0.464148	1
H	0.330842	-1.997367	-0.733098	1
H	1.769141	-0.987287	-0.728378	1
H	0.356761	-0.500697	-1.691238	1
H	0.315932	1.671343	1.319712	1
H	0.350892	1.704843	-0.456908	1
H	1.761461	1.146353	0.468952	1
Es	1.413315	1.140474	0.448574	99
Es	-1.559849	0.111815	1.026221	99
Es	0.419708	1.501285	1.033423	99
Es	0.451360	-0.636620	-1.399486	99
Es	0.666171	1.139091	0.427842	99
Es	0.161429	-0.232574	0.416361	99
Es	-1.300168	-0.239857	0.420012	99
Es	0.432214	-1.663614	-0.737839	99
Es	-1.556140	-0.941921	0.435457	99
Es	0.273223	-0.394165	0.706774	99
Es	0.371443	-0.528943	-0.112800	99
Es	0.367768	0.374518	0.392212	99
Es	0.673640	-0.956349	-0.745612	99
Es	-0.479487	-0.219248	0.388338	99
Es	0.444957	1.527800	-0.187782	99
Es	1.420827	-0.969479	-0.734486	99
Es	-1.587032	0.104078	-0.195211	99
30
Properties=species:S:1:pos:R:3:Z:I:1 energy=-173.3166637784496 field_type=dipole dipole="0.000000 0.000000 0.000000" charge=0
C	-1.300289	-0.239857	0.420012	6
N	0.161661	-0.232907	0.416952	7
C	0.673681	-0.956407	-0.745708	6
C	0.666212	1.139203	0.427842	6
H	-1.685889	0.265693	1.312772	1
H	-1.680459	-1.267307	0.453232	1
H	-1.719949	0.254393	-0.464148	1
H	0.330842	-1.997367	-0.733098	1
H	1.769141	-0.987287	-0.728378	1
H	0.356761	-0.500697	-1.691238	1
H	0.315932	1.671343	1.319712	1
H	0.350892	1.704843	-0.456908	1
H	1.761461	1.146353	0.468952	1
Es	-1.556087	-0.941788	0.435587	99
Es	0.432348	-1.663572	-0.737707	99
Es	-1.559813	0.111679	1.026184	99
Es	0.370811	-0.528114	-0.113264	99
Es	1.413181	1.140407	0.448713	99
Es	0.451198	-0.636637	-1.399619	99
Es	-1.300170	-0.239858	0.420013	99
Es	0.274127	-0.394869	0.707048	99
Es	1.420786	-0.969456	-0.734510	99
Es	0.666172	1.139093	0.427843	99
Es	-0.479371	-0.219382	0.388775	99
Es	0.673640	-0.956344	-0.745611	99
Es	0.444888	1.527972	-0.188022	99
Es	0.367557	0.374467	0.392153	99
Es	-1.587157	0.104132	-0.195378	99
Es	0.161432	-0.232578	0.416365	99
Es	0.419839	1.501137	1.033428	99
30
Properties=species:S:1:pos:R:3:Z:I:1 energy=-173.3166637784496 field_type=dipole dipole="0.000000 0.000000 0.000000" charge=0
C	-1.300289	-0.239857	0.420012	6
N	0.161661	-0.232907	0.416952	7
C	0.673681	-0.956407	-0.745708	6
C	0.666212	1.139203	0.427842	6
H	-1.685889	0.265693	1.312772	1
H	-1.680459	-1.267307	0.453232	1
H	-1.719949	0.254393	-0.464148	1
H	0.330842	-1.997367	-0.733098	1
H	1.769141	-0.987287	-0.728378	1
H	0.356761	-0.500697	-1.691238	1
H	0.315932	1.671343	1.319712	1
H	0.350892	1.704843	-0.456908	1
H	1.761461	1.146353	0.468952	1
Es	-1.559805	0.111535	1.026207	99
Es	0.419903	1.501032	1.033388	99
Es	0.666171	1.139091	0.427842	99
Es	1.420733	-0.969476	-0.734369	99
Es	-0.479151	-0.219053	0.388302	99
Es	0.432467	-1.663508	-0.737629	99
Es	0.444863	1.528089	-0.188164	99
Es	-1.300171	-0.239858	0.420012	99
Es	0.673639	-0.956350	-0.745612	99
Es	0.161445	-0.232585	0.416401	99
Es	0.274105	-0.395217	0.707866	99
Es	1.413098	1.140399	0.448845	99
Es	-1.555982	-0.941815	0.435562	99
Es	0.370673	-0.528072	-0.113237	99
Es	0.451155	-0.636587	-1.399811	99
Es	0.367428	0.374416	0.391865	99
Es	-1.587190	0.104249	-0.195471	99
30
Properties=species:S:1:pos:R:3:Z:I:1 energy=-173.3166637784496 field_type=dipole dipole="0.000000 0.000000 0.000000" charge=0
C	-1.300289	-0.239857	0.420012	6
N	0.161661	-0.232907	0.416952	7
C	0.673681	-0.956407	-0.745708	6
C	0.666212	1.139203	0.427842	6
H	-1.685889	0.265693	1.312772	1
H	-1.680459	-1.267307	0.453232	1
H	-1.719949	0.254393	-0.464148	1
H	0.330842	-1.997367	-0.733098	1
H	1.769141	-0.987287	-0.728378	1
H	0.356761	-0.500697	-1.691238	1
H	0.315932	1.671343	1.319712	1
H	0.350892	1.704843	-0.456908	1
H	1.761461	1.146353	0.468952	1
Es	1.413045	1.140319	0.448951	99
Es	0.161436	-0.232585	0.416377	99
Es	0.274793	-0.395441	0.708023	99
Es	-1.587269	0.104276	-0.195605	99
Es	0.432524	-1.663596	-0.737562	99
Es	-1.555949	-0.941739	0.435679	99
Es	-1.559716	0.111518	1.026232	99
Es	-0.479223	-0.219382	0.388594	99
Es	-1.300170	-0.239857	0.420013	99
Es	0.673639	-0.956349	-0.745612	99
Es	0.419893	1.500984	1.033409	99
Es	1.420566	-0.969467	-0.734325	99
Es	0.444922	1.528158	-0.188270	99
Es	0.451226	-0.636561	-1.399919	99
Es	0.367122	0.374476	0.391558	99
Es	0.370373	-0.527554	-0.113387	99
Es	0.666169	1.139086	0.427842	99
30
Properties=species:S:1:pos:R:3:Z:I:1 energy=-173.3166637784496 field_type=dipole dipole="0.000000 0.000000 0.000000" charge=0
C	-1.300289	-0.239857	0.420012	6
N	0.161661	-0.232907	0.416952	7
C	0.673681	-0.956407	-0.745708	6
C	0.666212	1.139203	0.427842	6
H	-1.685889	0.265693	1.312772	1
H	-1.680459	-1.267307	0.453232	1
H	-1.719949	0.254393	-0.464148	1
H	0.330842	-1.997367	-0.733098	1
H	1.769141	-0.987287	-0.728378	1
H	0.356761	-0.500697	-1.691238	1
H	0.315932	1.671343	1.319712	1
H	0.350892	1.704843	-0.456908	1
H	1.761461	1.146353	0.468952	1
Es	-0.479004	-0.218857	0.387643	99
Es	0.451193	-0.636515	-1.399947	99
Es	0.666171	1.139090	0.427842	99
Es	1.413083	1.140330	0.448912	99
Es	-1.300166	-0.239858	0.420012	99
Es	-1.555919	-0.941728	0.435751	99
Es	0.370567	-0.527549	-0.113250	99
Es	-1.587331	0.104322	-0.195671	99
Es	0.367299	0.374359	0.391881	99
Es	0.432473	-1.663479	-0.737575	99
Es	0.274152	-0.395922	0.708586	99
Es	0.419963	1.500966	1.033364	99
Es	1.420631	-0.969573	-0.734295	99
Es	0.444849	1.528176	-0.188242	99
Es	-1.559661	0.111459	1.026207	99
Es	0.673640	-0.956349	-0.745612	99
Es	0.161441	-0.232584	0.416392	99
30
Properties=species:S:1:pos:R:3:Z:I:1 energy=-173.3166637784496 field_type=dipole dipole="0.000000 0.000000 0.000000" charge=0
C	-1.300289	-0.239857	0.420012	6
N	0.161661	-0.232907	0.416952	7
C	0.673681	-0.956407	-0.745708	6
C	0.666212	1.139203	0.427842	6
H	-1.685889	0.265693	1.312772	1
H	-1.680459	-1.267307	0.453232	1
H	-1.719949	0.254393	-0.464148	1
H	0.330842	-1.997367	-0.733098	1
H	1.769141	-0.987287	-0.728378	1
H	0.356761	-0.500697	-1.691238	1
H	0.315932	1.671343	1.319712	1
H	0.350892	1.704843	-0.456908	1
H	1.761461	1.146353	0.468952	1
Es	1.413034	1.140357	0.448942	99
Es	0.370226	-0.527202	-0.113391	99
Es	0.419980	1.500941	1.033362	99
Es	0.444818	1.528187	-0.188311	99
Es	-1.300169	-0.239859	0.420013	99
Es	0.451141	-0.636528	-1.399964	99
Es	0.366941	0.374269	0.391495	99
Es	-1.559662	0.111438	1.026196	99
Es	-1.555917	-0.941708	0.435765	99
Es	0.274841	-0.396036	0.708960	99
Es	0.666171	1.139090	0.427843	99
Es	1.420582	-0.969526	-0.734343	99
Es	0.673639	-0.956349	-0.745612	99
Es	0.161431	-0.232579	0.416351	99
Es	0.432577	-1.663495	-0.737578	99
Es	-1.587341	0.104331	-0.195694	99
Es	-0.478911	-0.219044	0.387965	99
30
Properties=species:S:1:pos:R:3:Z:I:1 energy=-173.3166637784496 field_type=dipole dipole="0.000000 0.000000 0.000000" charge=0
C	-1.300289	-0.239857	0.420012	6
N	0.161661	-0.232907	0.416952	7
C	0.673681	-0.956407	-0.745708	6
C	0.666212	1.139203	0.427842	6
H	-1.685889	0.265693	1.312772	1
H	-1.680459	-1.267307	0.453232	1
H	-1.719949	0.254393	-0.464148	1
H	0.330842	-1.997367	-0.733098	1
H	1.769141	-0.987287	-0.728378	1
H	0.356761	-0.500697	-1.691238	1
H	0.315932	1.671343	1.319712	1
H	0.350892	1.704843	-0.456908	1
H	1.761461	1.146353	0.468952	1
Es	0.420044	1.500898	1.033403	99
Es	-0.478996	-0.219051	0.387994	99
Es	1.412970	1.140306	0.448962	99
Es	0.444822	1.528271	-0.188361	99
Es	0.673640	-0.956348	-0.745611	99
Es	1.420494	-0.969572	-0.734243	99
Es	0.370290	-0.527221	-0.113444	99
Es	0.161458	-0.232614	0.416425	99
Es	-1.300172	-0.239857	0.420013	99
Es	0.666171	1.139091	0.427842	99
Es	0.274868	-0.395980	0.708916	99
Es	0.432619	-1.663476	-0.737495	99
Es	-1.587421	0.104405	-0.195782	99
Es	-1.559602	0.111334	1.026201	99
Es	0.451153	-0.636471	-1.400113	99
Es	-1.555880	-0.941648	0.435823	99
Es	0.366923	0.374222	0.391470	99
30
Properties=species:S:1:pos:R:3:Z:I:1 energy=-173.3166637784496 field_type=dipole dipole="0.000000 0.000000 0.000000" charge=0
C	-1.300289	-0.239857	0.420012	6
N	0.161661	-0.232907	0.416952	7
C	0.673681	-0.956407	-0.745708	6
C	0.666212	1.139203	0.427842	6
H	-1.685889	0.265693	1.312772	1
H	-1.680459	-1.267307	0.453232	1
H	-1.719949	0.254393	-0.464148	1
H	0.330842	-1.997367	-0.733098	1
H	1.769141	-0.987287	-0.728378	1
H	0.356761	-0.500697	-1.691238	1
H	0.315932	1.671343	1.319712	1
H	0.350892	1.704843	-0.456908	1
H	1.761461	1.146353	0.468952	1
Es	-1.555855	-0.941618	0.435777	99
Es	0.451161	-0.636457	-1.400130	99
Es	-0.478948	-0.219079	0.388033	99
Es	1.420517	-0.969620	-0.734217	99
Es	0.370095	-0.527052	-0.113468	99
Es	-1.587399	0.104368	-0.195782	99
Es	0.673638	-0.956348	-0.745611	99
Es	0.275148	-0.396169	0.709147	99
Es	0.366802	0.374205	0.391246	99
Es	0.666171	1.139090	0.427842	99
Es	0.432584	-1.663437	-0.737498	99
Es	0.420037	1.500871	1.033372	99
Es	-1.300165	-0.239856	0.420011	99
Es	1.412960	1.140308	0.449022	99
Es	-1.559656	0.111352	1.026248	99
Es	0.444850	1.528306	-0.188376	99
Es	0.161441	-0.232576	0.416382	99
30
Properties=species:S:1:pos:R:3:Z:I:1 energy=-173.3166637784496 field_type=dipole dipole="0.000000 0.000000 0.000000" charge=0
C	-1.300289	-0.239857	0.420012	6
N	0.161661	-0.232907	0.416952	7
C	0.673681	-0.956407	-0.745708	6
C	0.666212	1.139203	0.427842	6
H	-1.685889	0.265693	1.312772	1
H	-1.680459	-1.267307	0.453232	1
H	-1.719949	0.254393	-0.464148	1
H	0.330842	-1.997367	-0.733098	1
H	1.769141	-0.987287	-0.728378	1
H	0.356761	-0.500697	-1.691238	1
H	0.315932	1.671343	1.319712	1
H	0.350892	1.704843	-0.456908	1
H	1.761461	1.146353	0.468952	1
Es	0.444803	1.528330	-0.188414	99
Es	0.366805	0.374172	0.391191	99
Es	-1.587436	0.104411	-0.195779	99
Es	0.369978	-0.526931	-0.113489	99
Es	1.420495	-0.969649	-0.734185	99
Es	-1.555853	-0.941645	0.435796	99
Es	-1.300167	-0.239856	0.420013	99
Es	0.432593	-1.663420	-0.737510	99
Es	0.420084	1.500848	1.033408	99
Es	0.666171	1.139091	0.427842	99
Es	0.673638	-0.956349	-0.745611	99
Es	0.161475	-0.232629	0.416469	99
Es	-0.478851	-0.218898	0.387828	99
Es	-1.559618	0.111305	1.026216	99
Es	1.412928	1.140287	0.448996	99
Es	0.275140	-0.396338	0.709384	99
Es	0.451195	-0.636440	-1.400157	99
30
Properties=species:S:1:pos:R:3:Z:I:1 energy=-173.3166637784496 field_type=dipole dipole="0.000000 0.000000 0.000000" charge=0
C	-1.300289	-0.239857	0.420012	6
N	0.161661	-0.232907	0.416952	7
C	0.673681	-0.956407	-0.745708	6
C	0.666212	1.139203	0.427842	6
H	-1.685889	0.265693	1.312772	1
H	-1.680459	-1.267307	0.453232	1
H	-1.719949	0.254393	-0.464148	1
H	0.330842	-1.997367	-0.733098	1
H	1.769141	-0.987287	-0.728378	1
H	0.356761	-0.500697	-1.691238	1
H	0.315932	1.671343	1.319712	1
H	0.350892	1.704843	-0.456908	1
H	1.761461	1.146353	0.468952	1
Es	0.275210	-0.396366	0.709613	99
Es	-1.300170	-0.239857	0.420013	99
Es	-1.559617	0.111345	1.026186	99
Es	0.366755	0.374248	0.391043	99
Es	0.666174	1.139092	0.427842	99
Es	1.420467	-0.969570	-0.734207	99
Es	-1.555868	-0.941598	0.435868	99
Es	0.451104	-0.636466	-1.400203	99
Es	0.369964	-0.526960	-0.113422	99
Es	1.412920	1.140260	0.449016	99
Es	0.432691	-1.663451	-0.737439	99
Es	0.420066	1.500828	1.033435	99
Es	0.673640	-0.956347	-0.745611	99
Es	0.161443	-0.232589	0.416354	99
Es	0.444802	1.528334	-0.188455	99
Es	-0.478765	-0.218985	0.387798	99
Es	-1.587434	0.104371	-0.195833	99
30
Properties=species:S:1:pos:R:3:Z:I:1 energy=-173.3166637784496 field_type=dipole dipole="0.000000 0.000000 0.000000" charge=0
C	-1.300289	-0.239857	0.420012	6
N	0.161661	-0.232907	0.416952	7
C	0.673681	-0.956407	-0.745708	6
C	0.666212	1.139203	0.427842	6
H	-1.685889	0.265693	1.312772	1
H	-1.680459	-1.267307	0.453232	1
H	-1.719949	0.254393	-0.464148	1
H	0.330842	-1.997367	-0.733098	1
H	1.769141	-0.987287	-0.728378	1
H	0.356761	-0.500697	-1.691238	1
H	0.315932	1.671343	1.319712	1
H	0.350892	1.704843	-0.456908	1
H	1.761461	1.146353	0.468952	1
Es	-1.555860	-0.941603	0.435806	99
Es	0.444742	1.528406	-0.188435	99
Es	0.420170	1.500781	1.033432	99
Es	0.666171	1.139091	0.427842	99
Es	-1.587439	0.104479	-0.195831	99
Es	0.370005	-0.527054	-0.113409	99
Es	-0.478725	-0.219069	0.387839	99
Es	-1.559576	0.111268	1.026243	99
Es	0.161427	-0.232584	0.416365	99
Es	0.673640	-0.956348	-0.745612	99
Es	0.366583	0.374277	0.390852	99
Es	0.451097	-0.636498	-1.400208	99
Es	0.275271	-0.396216	0.709751	99
Es	1.420545	-0.969690	-0.734215	99
Es	-1.300170	-0.239857	0.420013	99
Es	1.412906	1.140247	0.448982	99
Es	0.432593	-1.663341	-0.737417	99
30
Properties=species:S:1:pos:R:3:Z:I:1 energy=-173.3166637784496 field_type=dipole dipole="0.000000 0.000000 0.000000" charge=0
C	-1.300289	-0.239857	0.420012	6
N	0.161661	-0.232907	0.416952	7
C	0.673681	-0.956407	-0.745708	6
C	0.666212	1.139203	0.427842	6
H	-1.685889	0.265693	1.312772	1
H	-1.680459	-1.267307	0.453232	1
H	-1.719949	0.254393	-0.464148	1
H	0.330842	-1.997367	-0.733098	1
H	1.769141	-0.987287	-0.728378	1
H	0.356761	-0.500697	-1.691238	1
H	0.315932	1.671343	1.319712	1
H	0.350892	1.704843	-0.456908	1
H	1.761461	1.146353	0.468952	1
Es	-1.559606	0.111197	1.026234	99
Es	0.444838	1.528409	-0.188479	99
Es	0.420050	1.500762	1.033322	99
Es	-1.587454	0.104506	-0.195822	99
Es	0.451153	-0.636434	-1.400248	99
Es	0.366630	0.374108	0.390963	99
Es	0.432642	-1.663396	-0.737444	99
Es	1.412943	1.140283	0.449157	99
Es	-0.478648	-0.218756	0.387673	99
Es	0.161437	-0.232569	0.416366	99
Es	-1.300170	-0.239857	0.420013	99
Es	-1.555825	-0.941616	0.435776	99
Es	1.420451	-0.969665	-0.734161	99
Es	0.666172	1.139091	0.427843	99
Es	0.673639	-0.956348	-0.745612	99
Es	0.369999	-0.527002	-0.113508	99
Es	0.275130	-0.396424	0.709926	99
30
Properties=species:S:1:pos:R:3:Z:I:1 energy=-173.3166637784496 field_type=dipole dipole="0.000000 0.000000 0.000000" charge=0
C	-1.300289	-0.239857	0.420012	6
N	0.161661	-0.232907	0.416952	7
C	0.673681	-0.956407	-0.745708	6
C	0.666212	1.139203	0.427842	6
H	-1.685889	0.265693	1.312772	1
H	-1.680459	-1.267307	0.453232	1
H	-1.719949	0.254393	-0.464148	1
H	0.330842	-1.997367	-0.733098	1
H	1.769141	-0.987287	-0.728378	1
H	0.356761	-0.500697	-1.691238	1
H	0.315932	1.671343	1.319712	1
H	0.350892	1.704843	-0.456908	1
H	1.761461	1.146353	0.468952	1
Es	-0.478741	-0.218777	0.387751	99
Es	0.444788	1.528421	-0.188492	99
Es	0.366734	0.374075	0.391051	99
Es	0.451130	-0.636447	-1.400268	99
Es	-1.300170	-0.239858	0.420013	99
Es	0.432654	-1.663387	-0.737404	99
Es	1.420439	-0.969677	-0.734172	99
Es	0.420111	1.500753	1.033370	99
Es	1.412898	1.140275	0.449098	99
Es	-1.559567	0.111270	1.026188	99
Es	0.673640	-0.956351	-0.745614	99
Es	0.275324	-0.396600	0.709796	99
Es	-1.555824	-0.941606	0.435900	99
Es	0.161434	-0.232574	0.416368	99
Es	0.369856	-0.526759	-0.113541	99
Es	-1.587497	0.104440	-0.195886	99
Es	0.666171	1.139090	0.427842	99
30
Properties=species:S:1:pos:R:3:Z:I:1 energy=-173.3166637784496 field_type=dipole dipole="0.000000 0.000000 0.000000" charge=0
C	-1.300289	-0.239857	0.420012	6
N	0.161661	-0.232907	0.416952	7
C	0.673681	-0.956407	-0.745708	6
C	0.666212	1.139203	0.427842	6
H	-1.685889	0.265693	1.312772	1
H	-1.680459	-1.267307	0.453232	1
H	-1.719949	0.254393	-0.464148	1
H	0.330842	-1.997367	-0.733098	1
H	1.769141	-0.987287	-0.728378	1
H	0.356761	-0.500697	-1.691238	1
H	0.315932	1.671343	1.319712	1
H	0.350892	1.704843	-0.456908	1
H	1.761461	1.146353	0.468952	1
Es	0.451164	-0.636412	-1.400266	99
Es	-1.559583	0.111283	1.026232	99
Es	0.275566	-0.396643	0.709867	99
Es	0.420118	1.500777	1.033401	99
Es	-1.300168	-0.239856	0.420014	99
Es	0.432649	-1.663392	-0.737450	99
Es	0.161436	-0.232569	0.416348	99
Es	1.420435	-0.969678	-0.734146	99
Es	0.444843	1.528433	-0.188519	99
Es	-1.587455	0.104442	-0.195914	99
Es	-1.555812	-0.941586	0.435872	99
Es	1.412849	1.140240	0.449114	99
Es	0.366621	0.374068	0.390893	99
Es	0.673641	-0.956349	-0.745612	99
Es	0.369761	-0.526621	-0.113488	99
Es	-0.478855	-0.218939	0.387811	99
Es	0.666171	1.139092	0.427843	99
30
Properties=species:S:1:pos:R:3:Z:I:1 energy=-173.3166637784496 field_type=dipole dipole="0.000000 0.000000 0.000000" charge=0
C	-1.300289	-0.239857	0.420012	6
N	0.161661	-0.232907	0.416952	7
C	0.673681	-0.956407	-0.745708	6
C	0.666212	1.139203	0.427842	6
H	-1.685889	0.265693	1.312772	1
H	-1.680459	-1.267307	0.453232	1
H	-1.719949	0.254393	-0.464148	1
H	0.330842	-1.997367	-0.733098	1
H	1.769141	-0.987287	-0.728378	1
H	0.356761	-0.500697	-1.691238	1
H	0.315932	1.671343	1.319712	1
H	0.350892	1.704843	-0.456908	1
H	1.761461	1.146353	0.468952	1
Es	0.451118	-0.636418	-1.400323	99
Es	1.420472	-0.969731	-0.734119	99
Es	0.432646	-1.663312	-0.737407	99
Es	-1.300170	-0.239857	0.420013	99
Es	0.275231	-0.396464	0.709858	99
Es	-0.478726	-0.218835	0.387740	99
Es	-1.555745	-0.941529	0.435919	99
Es	0.369923	-0.526920	-0.113569	99
Es	-1.559554	0.111203	1.026250	99
Es	-1.587522	0.104472	-0.196002	99
Es	0.444787	1.528478	-0.188457	99
Es	1.412912	1.140273	0.449113	99
Es	0.161458	-0.232621	0.416444	99
Es	0.666172	1.139091	0.427842	99
Es	0.420172	1.500739	1.033308	99
Es	0.673640	-0.956349	-0.745612	99
Es	0.366566	0.374068	0.391001	99
30
Properties=species:S:1:pos:R:3:Z:I:1 energy=-173.3166637784496 field_type=dipole dipole="0.000000 0.000000 0.000000" charge=0
C	-1.300289	-0.239857	0.420012	6
N	0.161661	-0.232907	0.416952	7
C	0.673681	-0.956407	-0.745708	6
C	0.666212	1.139203	0.427842	6
H	-1.685889	0.265693	1.312772	1
H	-1.680459	-1.267307	0.453232	1
H	-1.719949	0.254393	-0.464148	1
H	0.330842	-1.997367	-0.733098	1
H	1.769141	-0.987287	-0.728378	1
H	0.356761	-0.500697	-1.691238	1
H	0.315932	1.671343	1.319712	1
H	0.350892	1.704843	-0.456908	1
H	1.761461	1.146353	0.468952	1
Es	-0.478715	-0.218946	0.387756	99
Es	-1.587540	0.104426	-0.195972	99
Es	-1.555767	-0.941552	0.435959	99
Es	-1.559550	0.111242	1.026206	99
Es	0.432686	-1.663385	-0.737385	99
Es	0.673639	-0.956349	-0.745612	99
Es	1.412897	1.140235	0.449171	99
Es	0.666171	1.139092	0.427842	99
Es	0.366608	0.374219	0.391088	99
Es	0.444764	1.528480	-0.188581	99
Es	0.370084	-0.526964	-0.113494	99
Es	-1.300170	-0.239856	0.420014	99
Es	0.275224	-0.396391	0.709794	99
Es	0.451086	-0.636378	-1.400324	99
Es	0.161429	-0.232592	0.416371	99
Es	1.420388	-0.969689	-0.734164	99
Es	0.420145	1.500697	1.033329	99
30
Properties=species:S:1:pos:R:3:Z:I:1 energy=-173.3166637784496 field_type=dipole dipole="0.000000 0.000000 0.000000" charge=0
C	-1.300289	-0.239857	0.420012	6
N	0.161661	-0.232907	0.416952	7
C	0.673681	-0.956407	-0.745708	6
C	0.666212	1.139203	0.427842	6
H	-1.685889	0.265693	1.312772	1
H	-1.680459	-1.267307	0.453232	1
H	-1.719949	0.254393	-0.464148	1
H	0.330842	-1.997367	-0.733098	1
H	1.769141	-0.987287	-0.728378	1
H	0.356761	-0.500697	-1.691238	1
H	0.315932	1.671343	1.319712	1
H	0.350892	1.704843	-0.456908	1
H	1.761461	1.146353	0.468952	1
Es	-0.478719	-0.218743	0.387501	99
Es	0.369973	-0.526897	-0.113489	99
Es	0.444754	1.528411	-0.188511	99
Es	1.412881	1.140272	0.449058	99
Es	0.673639	-0.956351	-0.745613	99
Es	-1.555779	-0.941584	0.435922	99
Es	0.275370	-0.396402	0.710292	99
Es	1.420413	-0.969675	-0.734096	99
Es	-1.300170	-0.239857	0.420013	99
Es	0.366492	0.373975	0.390704	99
Es	0.420154	1.500775	1.033383	99
Es	0.161459	-0.232624	0.416423	99
Es	0.432664	-1.663391	-0.737369	99
Es	-1.559531	0.111234	1.026222	99
Es	0.451135	-0.636408	-1.400350	99
Es	0.666171	1.139091	0.427843	99
Es	-1.587523	0.104464	-0.195934	99
30
Properties=species:S:1:pos:R:3:Z:I:1 energy=-173.3166637784496 field_type=dipole dipole="0.000000 0.000000 0.000000" charge=0
C	-1.300289	-0.239857	0.420012	6
N	0.161661	-0.232907	0.416952	7
C	0.673681	-0.956407	-0.745708	6
C	0.666212	1.139203	0.427842	6
H	-1.685889	0.265693	1.312772	1
H	-1.680459	-1.267307	0.453232	1
H	-1.719949	0.254393	-0.464148	1
H	0.330842	-1.997367	-0.733098	1
H	1.769141	-0.987287	-0.728378	1
H	0.356761	-0.500697	-1.691238	1
H	0.315932	1.671343	1.319712	1
H	0.350892	1.704843	-0.456908	1
H	1.761461	1.146353	0.468952	1
Es	0.444817	1.528433	-0.188587	99
Es	0.369801	-0.526662	-0.113530	99
Es	0.420106	1.500753	1.033407	99
Es	0.673640	-0.956349	-0.745613	99
Es	-1.587504	0.104452	-0.195949	99
Es	-0.478629	-0.218737	0.387496	99
Es	-1.559537	0.111261	1.026182	99
Es	-1.300170	-0.239857	0.420013	99
Es	0.432670	-1.663379	-0.737408	99
Es	0.275428	-0.396779	0.710256	99
Es	0.161424	-0.232572	0.416374	99
Es	1.420442	-0.969670	-0.734132	99
Es	0.451120	-0.636415	-1.400306	99
Es	0.366599	0.374030	0.390857	99
Es	1.412817	1.140264	0.449143	99
Es	-1.555815	-0.941577	0.435951	99
Es	0.666172	1.139091	0.427842	99
30
Properties=species:S:1:pos:R:3:Z:I:1 energy=-173.3166637784496 field_type=dipole dipole="0.000000 0.000000 0.000000" charge=0
C	-1.300289	-0.239857	0.420012	6
N	0.161661	-0.232907	0.416952	7
C	0.673681	-0.956407	-0.745708	6
C	0.666212	1.139203	0.427842	6
H	-1.685889	0.265693	1.312772	1
H	-1.680459	-1.267307	0.453232	1
H	-1.719949	0.254393	-0.464148	1
H	0.330842	-1.997367	-0.733098	1
H	1.769141	-0.987287	-0.728378	1
H	0.356761	-0.500697	-1.691238	1
H	0.315932	1.671343	1.319712	1
H	0.350892	1.704843	-0.456908	1
H	1.761461	1.146353	0.468952	1
Es	1.412851	1.140251	0.449037	99
Es	0.451163	-0.636383	-1.400342	99
Es	0.275341	-0.396640	0.710237	99
Es	1.420441	-0.969793	-0.734088	99
Es	0.444698	1.528524	-0.188504	99
Es	0.420237	1.500675	1.033433	99
Es	0.673640	-0.956349	-0.745612	99
Es	-1.555801	-0.941623	0.435924	99
Es	0.366581	0.373954	0.390909	99
Es	-1.300169	-0.239857	0.420013	99
Es	0.666172	1.139091	0.427842	99
Es	-1.559525	0.111199	1.026166	99
Es	-1.587523	0.104511	-0.195924	99
Es	-0.478674	-0.218644	0.387537	99
Es	0.369918	-0.526739	-0.113587	99
Es	0.432597	-1.663303	-0.737404	99
Es	0.161434	-0.232585	0.416361	99
30
Properties=species:S:1:pos:R:3:Z:I:1 energy=-173.3166637784496 field_type=dipole dipole="0.000000 0.000000 0.000000" charge=0
C	-1.300289	-0.239857	0.420012	6
N	0.161661	-0.232907	0.416952	7
C	0.673681	-0.956407	-0.745708	6
C	0.666212	1.139203	0.427842	6
H	-1.685889	0.265693	1.312772	1
H	-1.680459	-1.267307	0.453232	1
H	-1.719949	0.254393	-0.464148	1
H	0.330842	-1.997367	-0.733098	1
H	1.769141	-0.987287	-0.728378	1
H	0.356761	-0.500697	-1.691238	1
H	0.315932	1.671343	1.319712	1
H	0.350892	1.704843	-0.456908	1
H	1.761461	1.146353	0.468952	1
Es	1.420415	-0.969690	-0.734123	99
Es	-1.587503	0.104502	-0.195939	99
Es	0.451100	-0.636390	-1.400346	99
Es	0.420147	1.500709	1.033412	99
Es	0.666171	1.139091	0.427842	99
Es	0.161444	-0.232593	0.416371	99
Es	0.444745	1.528458	-0.188554	99
Es	0.432709	-1.663349	-0.737403	99
Es	0.673640	-0.956349	-0.745613	99
Es	-1.559522	0.111230	1.026175	99
Es	1.412835	1.140286	0.449102	99
Es	0.366622	0.373990	0.390809	99
Es	0.275365	-0.396765	0.710388	99
Es	-0.478592	-0.218693	0.387422	99
Es	-1.555837	-0.941580	0.435935	99
Es	-1.300169	-0.239857	0.420013	99
Es	0.369810	-0.526714	-0.113494	99
30
Properties=species:S:1:pos:R:3:Z:I:1 energy=-173.3166637784496 field_type=dipole dipole="0.000000 0.000000 0.000000" charge=0
C	-1.300289	-0.239857	0.420012	6
N	0.161661	-0.232907	0.416952	7
C	0.673681	-0.956407	-0.745708	6
C	0.666212	1.139203	0.427842	6
H	-1.685889	0.265693	1.312772	1
H	-1.680459	-1.267307	0.453232	1
H	-1.719949	0.254393	-0.464148	1
H	0.330842	-1.997367	-0.733098	1
H	1.769141	-0.987287	-0.728378	1
H	0.356761	-0.500697	-1.691238	1
H	0.315932	1.671343	1.319712	1
H	0.350892	1.704843	-0.456908	1
H	1.761461	1.146353	0.468952	1
Es	0.369750	-0.526659	-0.113671	99
Es	0.444900	1.528396	-0.188599	99
Es	-1.587561	0.104497	-0.195949	99
Es	1.412891	1.140274	0.449275	99
Es	0.366488	0.373967	0.390797	99
Es	1.420428	-0.969630	-0.734126	99
Es	0.419986	1.500763	1.033294	99
Es	-0.478509	-0.218576	0.387457	99
Es	0.432709	-1.663396	-0.737392	99
Es	-1.559535	0.111174	1.026173	99
Es	0.666169	1.139091	0.427844	99
Es	0.161417	-0.232596	0.416391	99
Es	-1.300167	-0.239857	0.420013	99
Es	0.275446	-0.396803	0.710476	99
Es	0.451103	-0.636423	-1.400317	99
Es	-1.555774	-0.941584	0.435942	99
Es	0.673639	-0.956348	-0.745612	99
30
Properties=species:S:1:pos:R:3:Z:I:1 energy=-173.3166637784496 field_type=dipole dipole="0.000000 0.000000 0.000000" charge=0
C	-1.300289	-0.239857	0.420012	6
N	0.161661	-0.232907	0.416952	7
C	0.673681	-0.956407	-0.745708	6
C	0.666212	1.139203	0.427842	6
H	-1.685889	0.265693	1.312772	1
H	-1.680459	-1.267307	0.453232	1
H	-1.719949	0.254393	-0.464148	1
H	0.330842	-1.997367	-0.733098	1
H	1.769141	-0.987287	-0.728378	1
H	0.356761	-0.500697	-1.691238	1
H	0.315932	1.671343	1.319712	1
H	0.350892	1.704843	-0.456908	1
H	1.761461	1.146353	0.468952	1
Es	-1.559546	0.111179	1.026244	99
Es	0.369839	-0.526593	-0.113489	99
Es	0.366643	0.374067	0.390986	99
Es	-1.587542	0.104489	-0.195990	99
Es	1.420378	-0.969727	-0.734095	99
Es	0.432697	-1.663345	-0.737381	99
Es	0.161440	-0.232599	0.416377	99
Es	0.451128	-0.636374	-1.400387	99
Es	1.412829	1.140239	0.449161	99
Es	0.673639	-0.956349	-0.745613	99
Es	-1.300171	-0.239857	0.420013	99
Es	-0.478722	-0.218756	0.387452	99
Es	0.444774	1.528489	-0.188598	99
Es	0.666171	1.139090	0.427843	99
Es	0.420171	1.500705	1.033371	99
Es	-1.555741	-0.941539	0.435915	99
Es	0.275394	-0.396832	0.710191	99
30
Properties=species:S:1:pos:R:3:Z:I:1 energy=-173.3166637784496 field_type=dipole dipole="0.000000 0.000000 0.000000" charge=0
C	-1.300289	-0.239857	0.420012	6
N	0.161661	-0.232907	0.416952	7
C	0.673681	-0.956407	-0.745708	6
C	0.666212	1.139203	0.427842	6
H	-1.685889	0.265693	1.312772	1
H	-1.680459	-1.267307	0.453232	1
H	-1.719949	0.254393	-0.464148	1
H	0.330842	-1.997367	-0.733098	1
H	1.769141	-0.987287	-0.728378	1
H	0.356761	-0.500697	-1.691238	1
H	0.315932	1.671343	1.319712	1
H	0.350892	1.704843	-0.456908	1
H	1.761461	1.146353	0.468952	1
Es	1.420395	-0.969791	-0.734116	99
Es	0.369687	-0.526422	-0.113654	99
Es	0.673640	-0.956348	-0.745611	99
Es	0.432661	-1.663298	-0.737373	99
Es	0.444772	1.528464	-0.188584	99
Es	-0.478670	-0.218622	0.387549	99
Es	0.366612	0.374008	0.391054	99
Es	0.161443	-0.232581	0.416370	99
Es	0.666171	1.139090	0.427842	99
Es	-1.555813	-0.941605	0.435964	99
Es	0.451127	-0.636397	-1.400381	99
Es	1.412850	1.140191	0.449103	99
Es	-1.587530	0.104539	-0.195976	99
Es	0.275484	-0.397031	0.710250	99
Es	-1.559483	0.111202	1.026165	99
Es	-1.300169	-0.239857	0.420013	99
Es	0.420204	1.500747	1.033383	99
30
Properties=species:S:1:pos:R:3:Z:I:1 energy=-173.3166637784496 field_type=dipole dipole="0.000000 0.000000 0.000000" charge=0
C	-1.300289	-0.239857	0.420012	6
N	0.161661	-0.232907	0.416952	7
C	0.673681	-0.956407	-0.745708	6
C	0.666212	1.139203	0.427842	6
H	-1.685889	0.265693	1.312772	1
H	-1.680459	-1.267307	0.453232	1
H	-1.719949	0.254393	-0.464148	1
H	0.330842	-1.997367	-0.733098	1
H	1.769141	-0.987287	-0.728378	1
H	0.356761	-0.500697	-1.691238	1
H	0.315932	1.671343	1.319712	1
H	0.350892	1.704843	-0.456908	1
H	1.761461	1.146353	0.468952	1
Es	-1.300170	-0.239857	0.420013	99
Es	0.366504	0.374064	0.390798	99
Es	0.666170	1.139088	0.427842	99
Es	-1.587548	0.104485	-0.195987	99
Es	0.432644	-1.663288	-0.737417	99
Es	0.161424	-0.232584	0.416382	99
Es	0.444733	1.528490	-0.188568	99
Es	0.673640	-0.956348	-0.745611	99
Es	-1.555774	-0.941588	0.435987	99
Es	0.369768	-0.526673	-0.113530	99
Es	1.412884	1.140233	0.449137	99
Es	0.451159	-0.636350	-1.400383	99
Es	0.275419	-0.396836	0.710467	99
Es	-1.559487	0.111224	1.026189	99
Es	1.420415	-0.969799	-0.734074	99
Es	0.420170	1.500688	1.033362	99
Es	-0.478569	-0.218660	0.387392	99
30
Properties=species:S:1:pos:R:3:Z:I:1 energy=-173.3166637784496 field_type=dipole dipole="0.000000 0.000000 0.000000" charge=0
C	-1.300289	-0.239857	0.420012	6
N	0.161661	-0.232907	0.416952	7
C	0.673681	-0.956407	-0.745708	6
C	0.666212	1.139203	0.427842	6
H	-1.685889	0.265693	1.312772	1
H	-1.680459	-1.267307	0.453232	1
H	-1.719949	0.254393	-0.464148	1
H	0.330842	-1.997367	-0.733098	1
H	1.769141	-0.987287	-0.728378	1
H	0.356761	-0.500697	-1.691238	1
H	0.315932	1.671343	1.319712	1
H	0.350892	1.704843	-0.456908	1
H	1.761461	1.146353	0.468952	1
Es	0.420162	1.500696	1.033381	99
Es	0.451115	-0.636361	-1.400422	99
Es	-1.300171	-0.239857	0.420013	99
Es	-1.587557	0.104490	-0.196007	99
Es	-0.478687	-0.218790	0.387497	99
Es	0.369741	-0.526498	-0.113534	99
Es	1.420328	-0.969678	-0.734087	99
Es	1.412844	1.140212	0.449159	99
Es	0.432751	-1.663397	-0.737356	99
Es	0.666173	1.139093	0.427842	99
Es	-1.555760	-0.941526	0.435965	99
Es	0.161433	-0.232593	0.416387	99
Es	0.673639	-0.956351	-0.745612	99
Es	-1.559511	0.111195	1.026222	99
Es	0.444765	1.528487	-0.188608	99
Es	0.366537	0.374075	0.390863	99
Es	0.275580	-0.396909	0.710294	99
30
Properties=species:S:1:pos:R:3:Z:I:1 energy=-173.3166637784496 field_type=dipole dipole="0.000000 0.000000 0.000000" charge=0
C	-1.300289	-0.239857	0.420012	6
N	0.161661	-0.232907	0.416952	7
C	0.673681	-0.956407	-0.745708	6
C	0.666212	1.139203	0.427842	6
H	-1.685889	0.265693	1.312772	1
H	-1.680459	-1.267307	0.453232	1
H	-1.719949	0.254393	-0.464148	1
H	0.330842	-1.997367	-0.733098	1
H	1.769141	-0.987287	-0.728378	1
H	0.356761	-0.500697	-1.691238	1
H	0.315932	1.671343	1.319712	1
H	0.350892	1.704843	-0.456908	1
H	1.761461	1.146353	0.468952	1
Es	0.432654	-1.663312	-0.737362	99
Es	0.161437	-0.232586	0.416397	99
Es	0.444769	1.528488	-0.188637	99
Es	0.366457	0.374005	0.390744	99
Es	1.420404	-0.969767	-0.734060	99
Es	1.412828	1.140222	0.449180	99
Es	0.275534	-0.396746	0.710467	99
Es	0.451151	-0.636392	-1.400400	99
Es	-0.478615	-0.218695	0.387491	99
Es	-1.587570	0.104522	-0.195996	99
Es	-1.559474	0.111187	1.026194	99
Es	0.420177	1.500704	1.033359	99
Es	-1.300170	-0.239857	0.420014	99
Es	0.666171	1.139090	0.427842	99
Es	0.673638	-0.956350	-0.745612	99
Es	0.369766	-0.526649	-0.113601	99
Es	-1.555778	-0.941576	0.435980	99
30
Properties=species:S:1:pos:R:3:Z:I:1 energy=-173.3166637784496 field_type=dipole dipole="0.000000 0.000000 0.000000" charge=0
C	-1.300289	-0.239857	0.420012	6
N	0.161661	-0.232907	0.416952	7
C	0.673681	-0.956407	-0.745708	6
C	0.666212	1.139203	0.427842	6
H	-1.685889	0.265693	1.312772	1
H	-1.680459	-1.267307	0.453232	1
H	-1.719949	0.254393	-0.464148	1
H	0.330842	-1.997367	-0.733098	1
H	1.769141	-0.987287	-0.728378	1
H	0.356761	-0.500697	-1.691238	1
H	0.315932	1.671343	1.319712	1
H	0.350892	1.704843	-0.456908	1
H	1.761461	1.146353	0.468952	1
Es	-1.300171	-0.239858	0.420013	99
Es	0.369730	-0.526457	-0.113717	99
Es	-1.587533	0.104621	-0.195889	99
Es	-1.555765	-0.941603	0.435800	99
Es	0.673637	-0.956350	-0.745611	99
Es	1.420390	-0.969686	-0.734105	99
Es	0.451149	-0.636356	-1.400333	99
Es	-0.478532	-0.218585	0.387432	99
Es	0.444818	1.528477	-0.188613	99
Es	0.366324	0.373871	0.390683	99
Es	0.420084	1.500698	1.033306	99
Es	0.432654	-1.663404	-0.737408	99
Es	0.161446	-0.232576	0.416378	99
Es	1.412869	1.140261	0.449251	99
Es	0.666171	1.139091	0.427842	99
Es	-1.559531	0.111071	1.026254	99
Es	0.275641	-0.396926	0.710715	99
30
Properties=species:S:1:pos:R:3:Z:I:1 energy=-173.3166637784496 field_type=dipole dipole="0.000000 0.000000 0.000000" charge=0
C	-1.300289	-0.239857	0.420012	6
N	0.161661	-0.232907	0.416952	7
C	0.673681	-0.956407	-0.745708	6
C	0.666212	1.139203	0.427842	6
H	-1.685889	0.265693	1.312772	1
H	-1.680459	-1.267307	0.453232	1
H	-1.719949	0.254393	-0.464148	1
H	0.330842	-1.997367	-0.733098	1
H	1.769141	-0.987287	-0.728378	1
H	0.356761	-0.500697	-1.691238	1
H	0.315932	1.671343	1.319712	1
H	0.350892	1.704843	-0.456908	1
H	1.761461	1.146353	0.468952	1
Es	0.673640	-0.956349	-0.745612	99
Es	0.369622	-0.526511	-0.113565	99
Es	-1.587593	0.104519	-0.196018	99
Es	1.412824	1.140229	0.449145	99
Es	0.451155	-0.636396	-1.400370	99
Es	0.275558	-0.396928	0.710606	99
Es	-1.555783	-0.941562	0.436041	99
Es	0.420190	1.500699	1.033385	99
Es	-1.300172	-0.239857	0.420012	99
Es	0.432692	-1.663358	-0.737399	99
Es	0.161452	-0.232602	0.416388	99
Es	1.420381	-0.969720	-0.734094	99
Es	-0.478609	-0.218614	0.387370	99
Es	-1.559423	0.111198	1.026179	99
Es	0.444757	1.528505	-0.188604	99
Es	0.666171	1.139090	0.427842	99
Es	0.366520	0.373946	0.390693	99
30
Properties=species:S:1:pos:R:3:Z:I:1 energy=-173.3166637784496 field_type=dipole dipole="0.000000 0.000000 0.000000" charge=0
C	-1.300289	-0.239857	0.420012	6
N	0.161661	-0.232907	0.416952	7
C	0.673681	-0.956407	-0.745708	6
C	0.666212	1.139203	0.427842	6
H	-1.685889	0.265693	1.312772	1
H	-1.680459	-1.267307	0.453232	1
H	-1.719949	0.254393	-0.464148	1
H	0.330842	-1.997367	-0.733098	1
H	1.769141	-0.987287	-0.728378	1
H	0.356761	-0.500697	-1.691238	1
H	0.315932	1.671343	1.319712	1
H	0.350892	1.704843	-0.456908	1
H	1.761461	1.146353	0.468952	1
Es	0.673640	-0.956349	-0.745612	99
Es	-1.587583	0.104479	-0.196001	99
Es	0.666171	1.139090	0.427842	99
Es	-0.478455	-0.218587	0.387331	99
Es	-1.555787	-0.941554	0.436021	99
Es	0.369743	-0.526621	-0.113618	99
Es	0.420180	1.500674	1.033354	99
Es	0.432739	-1.663303	-0.737321	99
Es	1.412879	1.140230	0.449150	99
Es	1.420406	-0.969719	-0.734088	99
Es	-1.559495	0.111198	1.026147	99
Es	-1.300170	-0.239857	0.420013	99
Es	0.366462	0.374022	0.390781	99
Es	0.275399	-0.396894	0.710601	99
Es	0.451073	-0.636432	-1.400427	99
Es	0.444738	1.528508	-0.188574	99
Es	0.161440	-0.232597	0.416398	99
